data_functionalizedCrystal
_audit_creation_method	'EQeq! by Chris Wilmer'
_symmetry_space_group_name_H-M	'P1'
_symmetry_Int_Tables_number	1
_symmetry_cell_setting	triclinic
loop_
_symmetry_equiv_pos_as_xyz
  x,y,z
_cell_length_a	18.816
_cell_length_b	18.816
_cell_length_c	38.416
_cell_angle_alpha	90
_cell_angle_beta	90
_cell_angle_gamma	120
loop_
_atom_site_label
_atom_site_type_symbol
_atom_site_fract_x
_atom_site_fract_y
_atom_site_fract_z
_atom_site_charge
Mof_O 	O 	0.55448	0.70325	0.32945	-0.468
Mof_C 	C 	0.5718	0.6935	0.35993	0.393
Mof_O 	O 	0.6331	0.7419	0.37685	-0.463
Mof_C 	C 	0.5091	0.6224	0.3776	0.038
Mof_C 	C 	0.5262	0.6085	0.4116	-0.023
Mof_H 	H 	0.5757	0.6442	0.4224	-0.012
Mof_C 	C 	0.4528	0.4405	0.4801	0.028
Mof_C 	C 	0.4269	0.4611	0.4845	0
Mof_C 	C 	0.3749	0.3605	0.4767	0.079
Mof_O 	O 	0.3178	0.3124	0.4578	-0.111
Mof_C 	C 	0.3841	0.3461	0.5141	0.037
Mof_O 	O 	0.2894	0.3428	0.4664	-0.1
Mof_C 	C 	0.5346	0.5888	0.409	-0.012
Mof_H 	H 	0.5821	0.6261	0.4206	0.097
Mof_C 	C 	0.521	0.6084	0.3761	-0.108
Mof_O 	O 	0.22115	0.03658	0.66278	-0.468
Mof_C 	C 	0.23847	0.02683	0.69326	0.394
Mof_O 	O 	0.29977	0.07523	0.71018	-0.462
Mof_C 	C 	0.17577	0.95573	0.71093	0.038
Mof_C 	C 	0.19287	0.94183	0.74493	-0.022
Mof_H 	H 	0.24237	0.97753	0.75573	-0.011
Mof_C 	C 	0.11947	0.77383	0.81343	0.028
Mof_C 	C 	0.09357	0.79443	0.81783	0.002
Mof_C 	C 	0.04157	0.69383	0.81003	0.08
Mof_O 	O 	0.98447	0.64573	0.79113	-0.11
Mof_C 	C 	0.05077	0.67943	0.84743	0.039
Mof_O 	O 	0.95607	0.67613	0.79973	-0.099
Mof_C 	C 	0.20127	0.92213	0.74233	-0.011
Mof_H 	H 	0.24877	0.95943	0.75393	0.098
Mof_C 	C 	0.18767	0.94173	0.70943	-0.107
Mof_O 	O 	0.88781	0.36992	0.99612	-0.467
Mof_C 	C 	0.90513	0.36017	0.0266	0.394
Mof_O 	O 	0.96643	0.40857	0.04352	-0.462
Mof_C 	C 	0.84243	0.28907	0.04427	0.038
Mof_C 	C 	0.85953	0.27517	0.07827	-0.022
Mof_H 	H 	0.90903	0.31087	0.08907	-0.011
Mof_C 	C 	0.78613	0.10717	0.14677	0.029
Mof_C 	C 	0.76023	0.12777	0.15117	0.002
Mof_C 	C 	0.70823	0.02717	0.14337	0.079
Mof_O 	O 	0.65113	0.97907	0.12447	-0.109
Mof_C 	C 	0.71743	0.01277	0.18077	0.038
Mof_O 	O 	0.62273	0.00947	0.13307	-0.1
Mof_C 	C 	0.86793	0.25547	0.07567	-0.011
Mof_H 	H 	0.91543	0.29277	0.08727	0.097
Mof_C 	C 	0.85433	0.27507	0.04277	-0.107
Mof_O 	O 	0.29675	0.85123	0.32945	-0.467
Mof_C 	C 	0.3065	0.8783	0.35993	0.394
Mof_O 	O 	0.2581	0.8912	0.37685	-0.462
Mof_C 	C 	0.3776	0.8867	0.3776	0.039
Mof_C 	C 	0.3915	0.9177	0.4116	-0.022
Mof_H 	H 	0.3558	0.9315	0.4224	-0.011
Mof_C 	C 	0.5595	0.0123	0.4801	0.029
Mof_C 	C 	0.5389	0.9658	0.4845	0.002
Mof_C 	C 	0.6395	0.0144	0.4767	0.08
Mof_O 	O 	0.6876	0.0054	0.4578	-0.11
Mof_C 	C 	0.6539	0.038	0.5141	0.038
Mof_O 	O 	0.6572	0.9466	0.4664	-0.099
Mof_C 	C 	0.4112	0.9458	0.409	-0.011
Mof_H 	H 	0.3739	0.956	0.4206	0.098
Mof_C 	C 	0.3916	0.9126	0.3761	-0.107
Mof_O 	O 	0.96342	0.18456	0.66278	-0.467
Mof_C 	C 	0.97317	0.21163	0.69326	0.394
Mof_O 	O 	0.92477	0.22453	0.71018	-0.462
Mof_C 	C 	0.04427	0.22003	0.71093	0.038
Mof_C 	C 	0.05817	0.25103	0.74493	-0.022
Mof_H 	H 	0.02247	0.26483	0.75573	-0.011
Mof_C 	C 	0.22617	0.34563	0.81343	0.029
Mof_C 	C 	0.20557	0.29913	0.81783	0.001
Mof_C 	C 	0.30617	0.34773	0.81003	0.08
Mof_O 	O 	0.35427	0.33873	0.79113	-0.11
Mof_C 	C 	0.32057	0.37133	0.84743	0.038
Mof_O 	O 	0.32387	0.27993	0.79973	-0.099
Mof_C 	C 	0.07787	0.27913	0.74233	-0.011
Mof_H 	H 	0.04057	0.28933	0.75393	0.098
Mof_C 	C 	0.05827	0.24593	0.70943	-0.107
Mof_O 	O 	0.63008	0.5179	0.99612	-0.467
Mof_C 	C 	0.63983	0.54497	0.0266	0.394
Mof_O 	O 	0.59143	0.55787	0.04352	-0.462
Mof_C 	C 	0.71093	0.55337	0.04427	0.039
Mof_C 	C 	0.72483	0.58437	0.07827	-0.022
Mof_H 	H 	0.68913	0.59817	0.08907	-0.011
Mof_C 	C 	0.89283	0.67897	0.14677	0.029
Mof_C 	C 	0.87223	0.63247	0.15117	0.002
Mof_C 	C 	0.97283	0.68107	0.14337	0.08
Mof_O 	O 	0.02093	0.67207	0.12447	-0.109
Mof_C 	C 	0.98723	0.70467	0.18077	0.038
Mof_O 	O 	0.99053	0.61327	0.13307	-0.099
Mof_C 	C 	0.74453	0.61247	0.07567	-0.011
Mof_H 	H 	0.70723	0.62267	0.08727	0.098
Mof_C 	C 	0.72493	0.57927	0.04277	-0.107
Mof_O 	O 	0.14877	0.44552	0.32945	-0.467
Mof_C 	C 	0.1217	0.4282	0.35993	0.394
Mof_O 	O 	0.1088	0.3669	0.37685	-0.462
Mof_C 	C 	0.1133	0.4909	0.3776	0.039
Mof_C 	C 	0.0823	0.4738	0.4116	-0.022
Mof_H 	H 	0.0685	0.4243	0.4224	-0.011
Mof_C 	C 	0.9877	0.5472	0.4801	0.029
Mof_C 	C 	0.0342	0.5731	0.4845	0.001
Mof_C 	C 	0.9856	0.6251	0.4767	0.08
Mof_O 	O 	0.9946	0.6822	0.4578	-0.11
Mof_C 	C 	0.962	0.6159	0.5141	0.038
Mof_O 	O 	0.0534	0.7106	0.4664	-0.099
Mof_C 	C 	0.0542	0.4654	0.409	-0.011
Mof_H 	H 	0.044	0.4179	0.4206	0.098
Mof_C 	C 	0.0874	0.479	0.3761	-0.107
Mof_O 	O 	0.81544	0.77885	0.66278	-0.467
Mof_C 	C 	0.78837	0.76153	0.69326	0.394
Mof_O 	O 	0.77547	0.70023	0.71018	-0.462
Mof_C 	C 	0.77997	0.82423	0.71093	0.039
Mof_C 	C 	0.74897	0.80713	0.74493	-0.022
Mof_H 	H 	0.73517	0.75763	0.75573	-0.011
Mof_C 	C 	0.65437	0.88053	0.81343	0.028
Mof_C 	C 	0.70087	0.90643	0.81783	0.002
Mof_C 	C 	0.65227	0.95843	0.81003	0.08
Mof_O 	O 	0.66127	0.01553	0.79113	-0.11
Mof_C 	C 	0.62867	0.94923	0.84743	0.039
Mof_O 	O 	0.72007	0.04393	0.79973	-0.099
Mof_C 	C 	0.72087	0.79873	0.74233	-0.011
Mof_H 	H 	0.71067	0.75123	0.75393	0.098
Mof_C 	C 	0.75407	0.81233	0.70943	-0.107
Mof_O 	O 	0.4821	0.11219	0.99612	-0.467
Mof_C 	C 	0.45503	0.09487	0.0266	0.394
Mof_O 	O 	0.44213	0.03357	0.04352	-0.462
Mof_C 	C 	0.44663	0.15757	0.04427	0.039
Mof_C 	C 	0.41563	0.14047	0.07827	-0.022
Mof_H 	H 	0.40183	0.09097	0.08907	-0.011
Mof_C 	C 	0.32103	0.21387	0.14677	0.029
Mof_C 	C 	0.36753	0.23977	0.15117	0.002
Mof_C 	C 	0.31893	0.29177	0.14337	0.08
Mof_O 	O 	0.32793	0.34887	0.12447	-0.11
Mof_C 	C 	0.29533	0.28257	0.18077	0.038
Mof_O 	O 	0.38673	0.37727	0.13307	-0.099
Mof_C 	C 	0.38753	0.13207	0.07567	-0.011
Mof_H 	H 	0.37733	0.08457	0.08727	0.098
Mof_C 	C 	0.42073	0.14567	0.04277	-0.107
Mof_O 	O 	0.70325	0.55448	0.67055	-0.467
Mof_C 	C 	0.6935	0.5718	0.64007	0.394
Mof_O 	O 	0.7419	0.6331	0.62315	-0.462
Mof_C 	C 	0.6224	0.5091	0.6224	0.039
Mof_C 	C 	0.6085	0.5262	0.5884	-0.022
Mof_H 	H 	0.6442	0.5757	0.5776	-0.011
Mof_C 	C 	0.4405	0.4528	0.5199	0.029
Mof_C 	C 	0.4611	0.4269	0.5155	0.001
Mof_C 	C 	0.3605	0.3749	0.5233	0.08
Mof_O 	O 	0.3124	0.3178	0.5422	-0.11
Mof_C 	C 	0.3461	0.3841	0.4859	0.038
Mof_O 	O 	0.3428	0.2894	0.5336	-0.099
Mof_C 	C 	0.5888	0.5346	0.591	-0.011
Mof_H 	H 	0.6261	0.5821	0.5794	0.098
Mof_C 	C 	0.6084	0.521	0.6239	-0.107
Mof_O 	O 	0.36992	0.88781	0.00388	-0.467
Mof_C 	C 	0.36017	0.90513	0.9734	0.394
Mof_O 	O 	0.40857	0.96643	0.95648	-0.462
Mof_C 	C 	0.28907	0.84243	0.95573	0.038
Mof_C 	C 	0.27517	0.85953	0.92173	-0.022
Mof_H 	H 	0.31087	0.90903	0.91093	-0.011
Mof_C 	C 	0.10717	0.78613	0.85323	0.029
Mof_C 	C 	0.12777	0.76023	0.84883	0.002
Mof_C 	C 	0.02717	0.70823	0.85663	0.079
Mof_O 	O 	0.97907	0.65113	0.87553	-0.109
Mof_C 	C 	0.01277	0.71743	0.81923	0.038
Mof_O 	O 	0.00947	0.62273	0.86693	-0.1
Mof_C 	C 	0.25547	0.86793	0.92433	-0.011
Mof_H 	H 	0.29277	0.91543	0.91273	0.097
Mof_C 	C 	0.27507	0.85433	0.95723	-0.107
Mof_O 	O 	0.03658	0.22115	0.33722	-0.467
Mof_C 	C 	0.02683	0.23847	0.30674	0.394
Mof_O 	O 	0.07523	0.29977	0.28982	-0.462
Mof_C 	C 	0.95573	0.17577	0.28907	0.038
Mof_C 	C 	0.94183	0.19287	0.25507	-0.022
Mof_H 	H 	0.97753	0.24237	0.24427	-0.011
Mof_C 	C 	0.77383	0.11947	0.18657	0.028
Mof_C 	C 	0.79443	0.09357	0.18217	0.002
Mof_C 	C 	0.69383	0.04157	0.18997	0.08
Mof_O 	O 	0.64573	0.98447	0.20887	-0.11
Mof_C 	C 	0.67943	0.05077	0.15257	0.039
Mof_O 	O 	0.67613	0.95607	0.20027	-0.099
Mof_C 	C 	0.92213	0.20127	0.25767	-0.011
Mof_H 	H 	0.95943	0.24877	0.24607	0.098
Mof_C 	C 	0.94173	0.18767	0.29057	-0.107
Mof_O 	O 	0.85123	0.29675	0.67055	-0.467
Mof_C 	C 	0.8783	0.3065	0.64007	0.394
Mof_O 	O 	0.8912	0.2581	0.62315	-0.462
Mof_C 	C 	0.8867	0.3776	0.6224	0.039
Mof_C 	C 	0.9177	0.3915	0.5884	-0.022
Mof_H 	H 	0.9315	0.3558	0.5776	-0.011
Mof_C 	C 	0.0123	0.5595	0.5199	0.029
Mof_C 	C 	0.9658	0.5389	0.5155	0.002
Mof_C 	C 	0.0144	0.6395	0.5233	0.08
Mof_O 	O 	0.0054	0.6876	0.5422	-0.11
Mof_C 	C 	0.038	0.6539	0.4859	0.038
Mof_O 	O 	0.9466	0.6572	0.5336	-0.099
Mof_C 	C 	0.9458	0.4112	0.591	-0.011
Mof_H 	H 	0.956	0.3739	0.5794	0.098
Mof_C 	C 	0.9126	0.3916	0.6239	-0.107
Mof_O 	O 	0.5179	0.63008	0.00388	-0.467
Mof_C 	C 	0.54497	0.63983	0.9734	0.394
Mof_O 	O 	0.55787	0.59143	0.95648	-0.462
Mof_C 	C 	0.55337	0.71093	0.95573	0.039
Mof_C 	C 	0.58437	0.72483	0.92173	-0.022
Mof_H 	H 	0.59817	0.68913	0.91093	-0.011
Mof_C 	C 	0.67897	0.89283	0.85323	0.029
Mof_C 	C 	0.63247	0.87223	0.84883	0.002
Mof_C 	C 	0.68107	0.97283	0.85663	0.08
Mof_O 	O 	0.67207	0.02093	0.87553	-0.109
Mof_C 	C 	0.70467	0.98723	0.81923	0.038
Mof_O 	O 	0.61327	0.99053	0.86693	-0.099
Mof_C 	C 	0.61247	0.74453	0.92433	-0.011
Mof_H 	H 	0.62267	0.70723	0.91273	0.098
Mof_C 	C 	0.57927	0.72493	0.95723	-0.107
Mof_O 	O 	0.18456	0.96342	0.33722	-0.467
Mof_C 	C 	0.21163	0.97317	0.30674	0.394
Mof_O 	O 	0.22453	0.92477	0.28982	-0.462
Mof_C 	C 	0.22003	0.04427	0.28907	0.038
Mof_C 	C 	0.25103	0.05817	0.25507	-0.022
Mof_H 	H 	0.26483	0.02247	0.24427	-0.011
Mof_C 	C 	0.34563	0.22617	0.18657	0.029
Mof_C 	C 	0.29913	0.20557	0.18217	0.001
Mof_C 	C 	0.34773	0.30617	0.18997	0.08
Mof_O 	O 	0.33873	0.35427	0.20887	-0.11
Mof_C 	C 	0.37133	0.32057	0.15257	0.038
Mof_O 	O 	0.27993	0.32387	0.20027	-0.099
Mof_C 	C 	0.27913	0.07787	0.25767	-0.011
Mof_H 	H 	0.28933	0.04057	0.24607	0.098
Mof_C 	C 	0.24593	0.05827	0.29057	-0.107
Mof_O 	O 	0.44552	0.14877	0.67055	-0.467
Mof_C 	C 	0.4282	0.1217	0.64007	0.394
Mof_O 	O 	0.3669	0.1088	0.62315	-0.462
Mof_C 	C 	0.4909	0.1133	0.6224	0.039
Mof_C 	C 	0.4738	0.0823	0.5884	-0.022
Mof_H 	H 	0.4243	0.0685	0.5776	-0.011
Mof_C 	C 	0.5472	0.9877	0.5199	0.029
Mof_C 	C 	0.5731	0.0342	0.5155	0.001
Mof_C 	C 	0.6251	0.9856	0.5233	0.08
Mof_O 	O 	0.6822	0.9946	0.5422	-0.11
Mof_C 	C 	0.6159	0.962	0.4859	0.038
Mof_O 	O 	0.7106	0.0534	0.5336	-0.099
Mof_C 	C 	0.4654	0.0542	0.591	-0.011
Mof_H 	H 	0.4179	0.044	0.5794	0.098
Mof_C 	C 	0.479	0.0874	0.6239	-0.107
Mof_O 	O 	0.11219	0.4821	0.00388	-0.467
Mof_C 	C 	0.09487	0.45503	0.9734	0.394
Mof_O 	O 	0.03357	0.44213	0.95648	-0.462
Mof_C 	C 	0.15757	0.44663	0.95573	0.039
Mof_C 	C 	0.14047	0.41563	0.92173	-0.022
Mof_H 	H 	0.09097	0.40183	0.91093	-0.011
Mof_C 	C 	0.21387	0.32103	0.85323	0.029
Mof_C 	C 	0.23977	0.36753	0.84883	0.002
Mof_C 	C 	0.29177	0.31893	0.85663	0.08
Mof_O 	O 	0.34887	0.32793	0.87553	-0.11
Mof_C 	C 	0.28257	0.29533	0.81923	0.038
Mof_O 	O 	0.37727	0.38673	0.86693	-0.099
Mof_C 	C 	0.13207	0.38753	0.92433	-0.011
Mof_H 	H 	0.08457	0.37733	0.91273	0.098
Mof_C 	C 	0.14567	0.42073	0.95723	-0.107
Mof_O 	O 	0.77885	0.81544	0.33722	-0.467
Mof_C 	C 	0.76153	0.78837	0.30674	0.394
Mof_O 	O 	0.70023	0.77547	0.28982	-0.462
Mof_C 	C 	0.82423	0.77997	0.28907	0.039
Mof_C 	C 	0.80713	0.74897	0.25507	-0.022
Mof_H 	H 	0.75763	0.73517	0.24427	-0.011
Mof_C 	C 	0.88053	0.65437	0.18657	0.028
Mof_C 	C 	0.90643	0.70087	0.18217	0.002
Mof_C 	C 	0.95843	0.65227	0.18997	0.08
Mof_O 	O 	0.01553	0.66127	0.20887	-0.11
Mof_C 	C 	0.94923	0.62867	0.15257	0.039
Mof_O 	O 	0.04393	0.72007	0.20027	-0.099
Mof_C 	C 	0.79873	0.72087	0.25767	-0.011
Mof_H 	H 	0.75123	0.71067	0.24607	0.098
Mof_C 	C 	0.81233	0.75407	0.29057	-0.107
Mof_O 	O 	0.44552	0.29675	0.67055	-0.467
Mof_C 	C 	0.4282	0.3065	0.64007	0.394
Mof_O 	O 	0.3669	0.2581	0.62315	-0.462
Mof_C 	C 	0.4909	0.3776	0.6224	0.039
Mof_C 	C 	0.4738	0.3915	0.5884	-0.022
Mof_H 	H 	0.4243	0.3558	0.5776	-0.011
Mof_C 	C 	0.5472	0.5595	0.5199	0.029
Mof_C 	C 	0.5731	0.5389	0.5155	0.001
Mof_C 	C 	0.6251	0.6395	0.5233	0.08
Mof_O 	O 	0.6822	0.6876	0.5422	-0.11
Mof_C 	C 	0.6159	0.6539	0.4859	0.038
Mof_O 	O 	0.7106	0.6572	0.5336	-0.099
Mof_C 	C 	0.4654	0.4112	0.591	-0.011
Mof_H 	H 	0.4179	0.3739	0.5794	0.098
Mof_C 	C 	0.479	0.3916	0.6239	-0.107
Mof_O 	O 	0.11219	0.63008	0.00388	-0.467
Mof_C 	C 	0.09487	0.63983	0.9734	0.394
Mof_O 	O 	0.03357	0.59143	0.95648	-0.462
Mof_C 	C 	0.15757	0.71093	0.95573	0.038
Mof_C 	C 	0.14047	0.72483	0.92173	-0.022
Mof_H 	H 	0.09097	0.68913	0.91093	-0.011
Mof_C 	C 	0.21387	0.89283	0.85323	0.029
Mof_C 	C 	0.23977	0.87223	0.84883	0.002
Mof_C 	C 	0.29177	0.97283	0.85663	0.079
Mof_O 	O 	0.34887	0.02093	0.87553	-0.109
Mof_C 	C 	0.28257	0.98723	0.81923	0.038
Mof_O 	O 	0.37727	0.99053	0.86693	-0.1
Mof_C 	C 	0.13207	0.74453	0.92433	-0.011
Mof_H 	H 	0.08457	0.70723	0.91273	0.097
Mof_C 	C 	0.14567	0.72493	0.95723	-0.107
Mof_O 	O 	0.77885	0.96342	0.33722	-0.467
Mof_C 	C 	0.76153	0.97317	0.30674	0.394
Mof_O 	O 	0.70023	0.92477	0.28982	-0.462
Mof_C 	C 	0.82423	0.04427	0.28907	0.038
Mof_C 	C 	0.80713	0.05817	0.25507	-0.022
Mof_H 	H 	0.75763	0.02247	0.24427	-0.011
Mof_C 	C 	0.88053	0.22617	0.18657	0.028
Mof_C 	C 	0.90643	0.20557	0.18217	0.002
Mof_C 	C 	0.95843	0.30617	0.18997	0.08
Mof_O 	O 	0.01553	0.35427	0.20887	-0.11
Mof_C 	C 	0.94923	0.32057	0.15257	0.039
Mof_O 	O 	0.04393	0.32387	0.20027	-0.099
Mof_C 	C 	0.79873	0.07787	0.25767	-0.011
Mof_H 	H 	0.75123	0.04057	0.24607	0.098
Mof_C 	C 	0.81233	0.05827	0.29057	-0.107
Mof_O 	O 	0.70325	0.14877	0.67055	-0.467
Mof_C 	C 	0.6935	0.1217	0.64007	0.394
Mof_O 	O 	0.7419	0.1088	0.62315	-0.462
Mof_C 	C 	0.6224	0.1133	0.6224	0.039
Mof_C 	C 	0.6085	0.0823	0.5884	-0.022
Mof_H 	H 	0.6442	0.0685	0.5776	-0.011
Mof_C 	C 	0.4405	0.9877	0.5199	0.029
Mof_C 	C 	0.4611	0.0342	0.5155	0.002
Mof_C 	C 	0.3605	0.9856	0.5233	0.08
Mof_O 	O 	0.3124	0.9946	0.5422	-0.11
Mof_C 	C 	0.3461	0.962	0.4859	0.038
Mof_O 	O 	0.3428	0.0534	0.5336	-0.099
Mof_C 	C 	0.5888	0.0542	0.591	-0.011
Mof_H 	H 	0.6261	0.044	0.5794	0.098
Mof_C 	C 	0.6084	0.0874	0.6239	-0.107
Mof_O 	O 	0.36992	0.4821	0.00388	-0.467
Mof_C 	C 	0.36017	0.45503	0.9734	0.394
Mof_O 	O 	0.40857	0.44213	0.95648	-0.462
Mof_C 	C 	0.28907	0.44663	0.95573	0.039
Mof_C 	C 	0.27517	0.41563	0.92173	-0.022
Mof_H 	H 	0.31087	0.40183	0.91093	-0.011
Mof_C 	C 	0.10717	0.32103	0.85323	0.029
Mof_C 	C 	0.12777	0.36753	0.84883	0.002
Mof_C 	C 	0.02717	0.31893	0.85663	0.08
Mof_O 	O 	0.97907	0.32793	0.87553	-0.109
Mof_C 	C 	0.01277	0.29533	0.81923	0.038
Mof_O 	O 	0.00947	0.38673	0.86693	-0.099
Mof_C 	C 	0.25547	0.38753	0.92433	-0.011
Mof_H 	H 	0.29277	0.37733	0.91273	0.098
Mof_C 	C 	0.27507	0.42073	0.95723	-0.107
Mof_O 	O 	0.03658	0.81544	0.33722	-0.467
Mof_C 	C 	0.02683	0.78837	0.30674	0.394
Mof_O 	O 	0.07523	0.77547	0.28982	-0.462
Mof_C 	C 	0.95573	0.77997	0.28907	0.038
Mof_C 	C 	0.94183	0.74897	0.25507	-0.022
Mof_H 	H 	0.97753	0.73517	0.24427	-0.011
Mof_C 	C 	0.77383	0.65437	0.18657	0.029
Mof_C 	C 	0.79443	0.70087	0.18217	0.001
Mof_C 	C 	0.69383	0.65227	0.18997	0.08
Mof_O 	O 	0.64573	0.66127	0.20887	-0.11
Mof_C 	C 	0.67943	0.62867	0.15257	0.038
Mof_O 	O 	0.67613	0.72007	0.20027	-0.099
Mof_C 	C 	0.92213	0.72087	0.25767	-0.011
Mof_H 	H 	0.95943	0.71067	0.24607	0.098
Mof_C 	C 	0.94173	0.75407	0.29057	-0.107
Mof_O 	O 	0.85123	0.55448	0.67055	-0.467
Mof_C 	C 	0.8783	0.5718	0.64007	0.394
Mof_O 	O 	0.8912	0.6331	0.62315	-0.462
Mof_C 	C 	0.8867	0.5091	0.6224	0.039
Mof_C 	C 	0.9177	0.5262	0.5884	-0.022
Mof_H 	H 	0.9315	0.5757	0.5776	-0.011
Mof_C 	C 	0.0123	0.4528	0.5199	0.029
Mof_C 	C 	0.9658	0.4269	0.5155	0.001
Mof_C 	C 	0.0144	0.3749	0.5233	0.08
Mof_O 	O 	0.0054	0.3178	0.5422	-0.11
Mof_C 	C 	0.038	0.3841	0.4859	0.038
Mof_O 	O 	0.9466	0.2894	0.5336	-0.099
Mof_C 	C 	0.9458	0.5346	0.591	-0.011
Mof_H 	H 	0.956	0.5821	0.5794	0.098
Mof_C 	C 	0.9126	0.521	0.6239	-0.107
Mof_O 	O 	0.5179	0.88781	0.00388	-0.467
Mof_C 	C 	0.54497	0.90513	0.9734	0.394
Mof_O 	O 	0.55787	0.96643	0.95648	-0.462
Mof_C 	C 	0.55337	0.84243	0.95573	0.039
Mof_C 	C 	0.58437	0.85953	0.92173	-0.022
Mof_H 	H 	0.59817	0.90903	0.91093	-0.011
Mof_C 	C 	0.67897	0.78613	0.85323	0.029
Mof_C 	C 	0.63247	0.76023	0.84883	0.002
Mof_C 	C 	0.68107	0.70823	0.85663	0.08
Mof_O 	O 	0.67207	0.65113	0.87553	-0.11
Mof_C 	C 	0.70467	0.71743	0.81923	0.038
Mof_O 	O 	0.61327	0.62273	0.86693	-0.099
Mof_C 	C 	0.61247	0.86793	0.92433	-0.011
Mof_H 	H 	0.62267	0.91543	0.91273	0.098
Mof_C 	C 	0.57927	0.85433	0.95723	-0.107
Mof_O 	O 	0.18456	0.22115	0.33722	-0.467
Mof_C 	C 	0.21163	0.23847	0.30674	0.394
Mof_O 	O 	0.22453	0.29977	0.28982	-0.462
Mof_C 	C 	0.22003	0.17577	0.28907	0.039
Mof_C 	C 	0.25103	0.19287	0.25507	-0.022
Mof_H 	H 	0.26483	0.24237	0.24427	-0.011
Mof_C 	C 	0.34563	0.11947	0.18657	0.028
Mof_C 	C 	0.29913	0.09357	0.18217	0.002
Mof_C 	C 	0.34773	0.04157	0.18997	0.08
Mof_O 	O 	0.33873	0.98447	0.20887	-0.11
Mof_C 	C 	0.37133	0.05077	0.15257	0.039
Mof_O 	O 	0.27993	0.95607	0.20027	-0.099
Mof_C 	C 	0.27913	0.20127	0.25767	-0.011
Mof_H 	H 	0.28933	0.24877	0.24607	0.098
Mof_C 	C 	0.24593	0.18767	0.29057	-0.107
Mof_O 	O 	0.29675	0.44552	0.32945	-0.467
Mof_C 	C 	0.3065	0.4282	0.35993	0.394
Mof_O 	O 	0.2581	0.3669	0.37685	-0.462
Mof_C 	C 	0.3776	0.4909	0.3776	0.039
Mof_C 	C 	0.3915	0.4738	0.4116	-0.022
Mof_H 	H 	0.3558	0.4243	0.4224	-0.011
Mof_C 	C 	0.5595	0.5472	0.4801	0.029
Mof_C 	C 	0.5389	0.5731	0.4845	0.001
Mof_C 	C 	0.6395	0.6251	0.4767	0.08
Mof_O 	O 	0.6876	0.6822	0.4578	-0.11
Mof_C 	C 	0.6539	0.6159	0.5141	0.038
Mof_O 	O 	0.6572	0.7106	0.4664	-0.099
Mof_C 	C 	0.4112	0.4654	0.409	-0.011
Mof_H 	H 	0.3739	0.4179	0.4206	0.098
Mof_C 	C 	0.3916	0.479	0.3761	-0.107
Mof_O 	O 	0.96342	0.77885	0.66278	-0.467
Mof_C 	C 	0.97317	0.76153	0.69326	0.394
Mof_O 	O 	0.92477	0.70023	0.71018	-0.462
Mof_C 	C 	0.04427	0.82423	0.71093	0.038
Mof_C 	C 	0.05817	0.80713	0.74493	-0.022
Mof_H 	H 	0.02247	0.75763	0.75573	-0.011
Mof_C 	C 	0.22617	0.88053	0.81343	0.028
Mof_C 	C 	0.20557	0.90643	0.81783	0.002
Mof_C 	C 	0.30617	0.95843	0.81003	0.08
Mof_O 	O 	0.35427	0.01553	0.79113	-0.11
Mof_C 	C 	0.32057	0.94923	0.84743	0.039
Mof_O 	O 	0.32387	0.04393	0.79973	-0.099
Mof_C 	C 	0.07787	0.79873	0.74233	-0.011
Mof_H 	H 	0.04057	0.75123	0.75393	0.098
Mof_C 	C 	0.05827	0.81233	0.70943	-0.107
Mof_O 	O 	0.63008	0.11219	0.99612	-0.467
Mof_C 	C 	0.63983	0.09487	0.0266	0.394
Mof_O 	O 	0.59143	0.03357	0.04352	-0.462
Mof_C 	C 	0.71093	0.15757	0.04427	0.038
Mof_C 	C 	0.72483	0.14047	0.07827	-0.022
Mof_H 	H 	0.68913	0.09097	0.08907	-0.011
Mof_C 	C 	0.89283	0.21387	0.14677	0.029
Mof_C 	C 	0.87223	0.23977	0.15117	0.002
Mof_C 	C 	0.97283	0.29177	0.14337	0.079
Mof_O 	O 	0.02093	0.34887	0.12447	-0.109
Mof_C 	C 	0.98723	0.28257	0.18077	0.038
Mof_O 	O 	0.99053	0.37727	0.13307	-0.1
Mof_C 	C 	0.74453	0.13207	0.07567	-0.011
Mof_H 	H 	0.70723	0.08457	0.08727	0.097
Mof_C 	C 	0.72493	0.14567	0.04277	-0.107
Mof_O 	O 	0.14877	0.70325	0.32945	-0.467
Mof_C 	C 	0.1217	0.6935	0.35993	0.394
Mof_O 	O 	0.1088	0.7419	0.37685	-0.462
Mof_C 	C 	0.1133	0.6224	0.3776	0.039
Mof_C 	C 	0.0823	0.6085	0.4116	-0.022
Mof_H 	H 	0.0685	0.6442	0.4224	-0.011
Mof_C 	C 	0.9877	0.4405	0.4801	0.029
Mof_C 	C 	0.0342	0.4611	0.4845	0.002
Mof_C 	C 	0.9856	0.3605	0.4767	0.08
Mof_O 	O 	0.9946	0.3124	0.4578	-0.11
Mof_C 	C 	0.962	0.3461	0.5141	0.038
Mof_O 	O 	0.0534	0.3428	0.4664	-0.099
Mof_C 	C 	0.0542	0.5888	0.409	-0.011
Mof_H 	H 	0.044	0.6261	0.4206	0.098
Mof_C 	C 	0.0874	0.6084	0.3761	-0.107
Mof_O 	O 	0.81544	0.03658	0.66278	-0.467
Mof_C 	C 	0.78837	0.02683	0.69326	0.394
Mof_O 	O 	0.77547	0.07523	0.71018	-0.462
Mof_C 	C 	0.77997	0.95573	0.71093	0.038
Mof_C 	C 	0.74897	0.94183	0.74493	-0.022
Mof_H 	H 	0.73517	0.97753	0.75573	-0.011
Mof_C 	C 	0.65437	0.77383	0.81343	0.029
Mof_C 	C 	0.70087	0.79443	0.81783	0.001
Mof_C 	C 	0.65227	0.69383	0.81003	0.08
Mof_O 	O 	0.66127	0.64573	0.79113	-0.11
Mof_C 	C 	0.62867	0.67943	0.84743	0.038
Mof_O 	O 	0.72007	0.67613	0.79973	-0.099
Mof_C 	C 	0.72087	0.92213	0.74233	-0.011
Mof_H 	H 	0.71067	0.95943	0.75393	0.098
Mof_C 	C 	0.75407	0.94173	0.70943	-0.107
Mof_O 	O 	0.4821	0.36992	0.99612	-0.467
Mof_C 	C 	0.45503	0.36017	0.0266	0.394
Mof_O 	O 	0.44213	0.40857	0.04352	-0.462
Mof_C 	C 	0.44663	0.28907	0.04427	0.039
Mof_C 	C 	0.41563	0.27517	0.07827	-0.022
Mof_H 	H 	0.40183	0.31087	0.08907	-0.011
Mof_C 	C 	0.32103	0.10717	0.14677	0.029
Mof_C 	C 	0.36753	0.12777	0.15117	0.002
Mof_C 	C 	0.31893	0.02717	0.14337	0.08
Mof_O 	O 	0.32793	0.97907	0.12447	-0.109
Mof_C 	C 	0.29533	0.01277	0.18077	0.038
Mof_O 	O 	0.38673	0.00947	0.13307	-0.099
Mof_C 	C 	0.38753	0.25547	0.07567	-0.011
Mof_H 	H 	0.37733	0.29277	0.08727	0.098
Mof_C 	C 	0.42073	0.27507	0.04277	-0.107
Mof_O 	O 	0.55448	0.85123	0.32945	-0.467
Mof_C 	C 	0.5718	0.8783	0.35993	0.394
Mof_O 	O 	0.6331	0.8912	0.37685	-0.462
Mof_C 	C 	0.5091	0.8867	0.3776	0.039
Mof_C 	C 	0.5262	0.9177	0.4116	-0.022
Mof_H 	H 	0.5757	0.9315	0.4224	-0.011
Mof_C 	C 	0.4528	0.0123	0.4801	0.029
Mof_C 	C 	0.4269	0.9658	0.4845	0.001
Mof_C 	C 	0.3749	0.0144	0.4767	0.08
Mof_O 	O 	0.3178	0.0054	0.4578	-0.11
Mof_C 	C 	0.3841	0.038	0.5141	0.038
Mof_O 	O 	0.2894	0.9466	0.4664	-0.099
Mof_C 	C 	0.5346	0.9458	0.409	-0.011
Mof_H 	H 	0.5821	0.956	0.4206	0.098
Mof_C 	C 	0.521	0.9126	0.3761	-0.107
Mof_O 	O 	0.22115	0.18456	0.66278	-0.467
Mof_C 	C 	0.23847	0.21163	0.69326	0.394
Mof_O 	O 	0.29977	0.22453	0.71018	-0.462
Mof_C 	C 	0.17577	0.22003	0.71093	0.039
Mof_C 	C 	0.19287	0.25103	0.74493	-0.022
Mof_H 	H 	0.24237	0.26483	0.75573	-0.011
Mof_C 	C 	0.11947	0.34563	0.81343	0.028
Mof_C 	C 	0.09357	0.29913	0.81783	0.002
Mof_C 	C 	0.04157	0.34773	0.81003	0.08
Mof_O 	O 	0.98447	0.33873	0.79113	-0.11
Mof_C 	C 	0.05077	0.37133	0.84743	0.039
Mof_O 	O 	0.95607	0.27993	0.79973	-0.099
Mof_C 	C 	0.20127	0.27913	0.74233	-0.011
Mof_H 	H 	0.24877	0.28933	0.75393	0.098
Mof_C 	C 	0.18767	0.24593	0.70943	-0.107
Mof_O 	O 	0.88781	0.5179	0.99612	-0.467
Mof_C 	C 	0.90513	0.54497	0.0266	0.394
Mof_O 	O 	0.96643	0.55787	0.04352	-0.462
Mof_C 	C 	0.84243	0.55337	0.04427	0.039
Mof_C 	C 	0.85953	0.58437	0.07827	-0.022
Mof_H 	H 	0.90903	0.59817	0.08907	-0.011
Mof_C 	C 	0.78613	0.67897	0.14677	0.029
Mof_C 	C 	0.76023	0.63247	0.15117	0.002
Mof_C 	C 	0.70823	0.68107	0.14337	0.08
Mof_O 	O 	0.65113	0.67207	0.12447	-0.11
Mof_C 	C 	0.71743	0.70467	0.18077	0.038
Mof_O 	O 	0.62273	0.61327	0.13307	-0.099
Mof_C 	C 	0.86793	0.61247	0.07567	-0.011
Mof_H 	H 	0.91543	0.62267	0.08727	0.098
Mof_C 	C 	0.85433	0.57927	0.04277	-0.107
Mof_Zn	Zn	0.61482	0.80741	0.30121	1.207
Mof_Zn	Zn	0.28149	0.14074	0.63454	1.207
Mof_Zn	Zn	0.94815	0.47408	0.96788	1.207
Mof_Zn	Zn	0.19259	0.80741	0.30121	1.207
Mof_Zn	Zn	0.85926	0.14074	0.63454	1.207
Mof_Zn	Zn	0.52592	0.47408	0.96788	1.207
Mof_Zn	Zn	0.19259	0.38518	0.30121	1.207
Mof_Zn	Zn	0.85926	0.71851	0.63454	1.207
Mof_Zn	Zn	0.52592	0.05185	0.96788	1.207
Mof_Zn	Zn	0.80741	0.61482	0.69879	1.207
Mof_Zn	Zn	0.47408	0.94815	0.03212	1.207
Mof_Zn	Zn	0.14074	0.28149	0.36546	1.207
Mof_Zn	Zn	0.80741	0.19259	0.69879	1.207
Mof_Zn	Zn	0.47408	0.52592	0.03212	1.207
Mof_Zn	Zn	0.14074	0.85926	0.36546	1.207
Mof_Zn	Zn	0.38518	0.19259	0.69879	1.207
Mof_Zn	Zn	0.05185	0.52592	0.03212	1.207
Mof_Zn	Zn	0.71851	0.85926	0.36546	1.207
Mof_C 	C 	0.4636	0.5364	0.4291	0.069
Mof_N 	N 	0.4775	0.5225	0.4642	-0.067
Mof_C 	C 	0.4353	0.5647	0.3587	0.12
Mof_H 	H 	0.4257	0.5743	0.3359	0.07
Mof_C 	C 	0.4485	0.5515	0.3608	-0.078
Mof_H 	H 	0.4372	0.5628	0.3386	-0.041
Mof_C 	C 	0.482	0.518	0.4251	0.007
Mof_N 	N 	0.4982	0.5018	0.4592	-0.067
Mof_C 	C 	0.13027	0.86973	0.76243	0.068
Mof_N 	N 	0.14417	0.85583	0.79753	-0.067
Mof_C 	C 	0.10197	0.89803	0.69203	0.121
Mof_H 	H 	0.09237	0.90763	0.66923	0.071
Mof_C 	C 	0.11517	0.88483	0.69413	-0.078
Mof_H 	H 	0.10387	0.89613	0.67193	-0.041
Mof_C 	C 	0.14867	0.85133	0.75843	0.007
Mof_N 	N 	0.16487	0.83513	0.79253	-0.066
Mof_C 	C 	0.79693	0.20307	0.09577	0.069
Mof_N 	N 	0.81083	0.18917	0.13087	-0.067
Mof_C 	C 	0.76863	0.23137	0.02537	0.12
Mof_H 	H 	0.75903	0.24097	0.00257	0.07
Mof_C 	C 	0.78183	0.21817	0.02747	-0.078
Mof_H 	H 	0.77053	0.22947	0.00527	-0.041
Mof_C 	C 	0.81533	0.18467	0.09177	0.007
Mof_N 	N 	0.83153	0.16847	0.12587	-0.067
Mof_C 	C 	0.4636	0.9272	0.4291	0.069
Mof_N 	N 	0.4775	0.955	0.4642	-0.067
Mof_C 	C 	0.4353	0.8706	0.3587	0.12
Mof_H 	H 	0.4257	0.8514	0.3359	0.07
Mof_C 	C 	0.4485	0.897	0.3608	-0.078
Mof_H 	H 	0.4372	0.8744	0.3386	-0.041
Mof_C 	C 	0.482	0.964	0.4251	0.007
Mof_N 	N 	0.4982	0.9964	0.4592	-0.067
Mof_C 	C 	0.13027	0.26053	0.76243	0.069
Mof_N 	N 	0.14417	0.28833	0.79753	-0.067
Mof_C 	C 	0.10197	0.20393	0.69203	0.12
Mof_H 	H 	0.09237	0.18473	0.66923	0.07
Mof_C 	C 	0.11517	0.23033	0.69413	-0.078
Mof_H 	H 	0.10387	0.20773	0.67193	-0.041
Mof_C 	C 	0.14867	0.29733	0.75843	0.007
Mof_N 	N 	0.16487	0.32973	0.79253	-0.066
Mof_C 	C 	0.79693	0.59387	0.09577	0.069
Mof_N 	N 	0.81083	0.62167	0.13087	-0.067
Mof_C 	C 	0.76863	0.53727	0.02537	0.12
Mof_H 	H 	0.75903	0.51807	0.00257	0.07
Mof_C 	C 	0.78183	0.56367	0.02747	-0.078
Mof_H 	H 	0.77053	0.54107	0.00527	-0.041
Mof_C 	C 	0.81533	0.63067	0.09177	0.007
Mof_N 	N 	0.83153	0.66307	0.12587	-0.067
Mof_C 	C 	0.0728	0.5364	0.4291	0.069
Mof_N 	N 	0.045	0.5225	0.4642	-0.067
Mof_C 	C 	0.1294	0.5647	0.3587	0.12
Mof_H 	H 	0.1486	0.5743	0.3359	0.07
Mof_C 	C 	0.103	0.5515	0.3608	-0.078
Mof_H 	H 	0.1256	0.5628	0.3386	-0.041
Mof_C 	C 	0.036	0.518	0.4251	0.007
Mof_N 	N 	0.0036	0.5018	0.4592	-0.067
Mof_C 	C 	0.73947	0.86973	0.76243	0.069
Mof_N 	N 	0.71167	0.85583	0.79753	-0.067
Mof_C 	C 	0.79607	0.89803	0.69203	0.12
Mof_H 	H 	0.81527	0.90763	0.66923	0.07
Mof_C 	C 	0.76967	0.88483	0.69413	-0.078
Mof_H 	H 	0.79227	0.89613	0.67193	-0.041
Mof_C 	C 	0.70267	0.85133	0.75843	0.007
Mof_N 	N 	0.67027	0.83513	0.79253	-0.066
Mof_C 	C 	0.40613	0.20307	0.09577	0.069
Mof_N 	N 	0.37833	0.18917	0.13087	-0.067
Mof_C 	C 	0.46273	0.23137	0.02537	0.12
Mof_H 	H 	0.48193	0.24097	0.00257	0.07
Mof_C 	C 	0.43633	0.21817	0.02747	-0.078
Mof_H 	H 	0.45893	0.22947	0.00527	-0.041
Mof_C 	C 	0.36933	0.18467	0.09177	0.007
Mof_N 	N 	0.33693	0.16847	0.12587	-0.067
Mof_C 	C 	0.5364	0.4636	0.5709	0.069
Mof_N 	N 	0.5225	0.4775	0.5358	-0.067
Mof_C 	C 	0.5647	0.4353	0.6413	0.12
Mof_H 	H 	0.5743	0.4257	0.6641	0.07
Mof_C 	C 	0.5515	0.4485	0.6392	-0.078
Mof_H 	H 	0.5628	0.4372	0.6614	-0.041
Mof_C 	C 	0.518	0.482	0.5749	0.007
Mof_N 	N 	0.5018	0.4982	0.5408	-0.067
Mof_C 	C 	0.20307	0.79693	0.90423	0.069
Mof_N 	N 	0.18917	0.81083	0.86913	-0.067
Mof_C 	C 	0.23137	0.76863	0.97463	0.12
Mof_H 	H 	0.24097	0.75903	0.99743	0.07
Mof_C 	C 	0.21817	0.78183	0.97253	-0.078
Mof_H 	H 	0.22947	0.77053	0.99473	-0.041
Mof_C 	C 	0.18467	0.81533	0.90823	0.007
Mof_N 	N 	0.16847	0.83153	0.87413	-0.067
Mof_C 	C 	0.86973	0.13027	0.23757	0.068
Mof_N 	N 	0.85583	0.14417	0.20247	-0.067
Mof_C 	C 	0.89803	0.10197	0.30797	0.121
Mof_H 	H 	0.90763	0.09237	0.33077	0.071
Mof_C 	C 	0.88483	0.11517	0.30587	-0.078
Mof_H 	H 	0.89613	0.10387	0.32807	-0.041
Mof_C 	C 	0.85133	0.14867	0.24157	0.007
Mof_N 	N 	0.83513	0.16487	0.20747	-0.066
Mof_C 	C 	0.9272	0.4636	0.5709	0.069
Mof_N 	N 	0.955	0.4775	0.5358	-0.067
Mof_C 	C 	0.8706	0.4353	0.6413	0.12
Mof_H 	H 	0.8514	0.4257	0.6641	0.07
Mof_C 	C 	0.897	0.4485	0.6392	-0.078
Mof_H 	H 	0.8744	0.4372	0.6614	-0.041
Mof_C 	C 	0.964	0.482	0.5749	0.007
Mof_N 	N 	0.9964	0.4982	0.5408	-0.067
Mof_C 	C 	0.59387	0.79693	0.90423	0.069
Mof_N 	N 	0.62167	0.81083	0.86913	-0.067
Mof_C 	C 	0.53727	0.76863	0.97463	0.12
Mof_H 	H 	0.51807	0.75903	0.99743	0.07
Mof_C 	C 	0.56367	0.78183	0.97253	-0.078
Mof_H 	H 	0.54107	0.77053	0.99473	-0.041
Mof_C 	C 	0.63067	0.81533	0.90823	0.007
Mof_N 	N 	0.66307	0.83153	0.87413	-0.067
Mof_C 	C 	0.26053	0.13027	0.23757	0.069
Mof_N 	N 	0.28833	0.14417	0.20247	-0.067
Mof_C 	C 	0.20393	0.10197	0.30797	0.12
Mof_H 	H 	0.18473	0.09237	0.33077	0.07
Mof_C 	C 	0.23033	0.11517	0.30587	-0.078
Mof_H 	H 	0.20773	0.10387	0.32807	-0.041
Mof_C 	C 	0.29733	0.14867	0.24157	0.007
Mof_N 	N 	0.32973	0.16487	0.20747	-0.066
Mof_C 	C 	0.5364	0.0728	0.5709	0.069
Mof_N 	N 	0.5225	0.045	0.5358	-0.067
Mof_C 	C 	0.5647	0.1294	0.6413	0.12
Mof_H 	H 	0.5743	0.1486	0.6641	0.07
Mof_C 	C 	0.5515	0.103	0.6392	-0.078
Mof_H 	H 	0.5628	0.1256	0.6614	-0.041
Mof_C 	C 	0.518	0.036	0.5749	0.007
Mof_N 	N 	0.5018	0.0036	0.5408	-0.067
Mof_C 	C 	0.20307	0.40613	0.90423	0.069
Mof_N 	N 	0.18917	0.37833	0.86913	-0.067
Mof_C 	C 	0.23137	0.46273	0.97463	0.12
Mof_H 	H 	0.24097	0.48193	0.99743	0.07
Mof_C 	C 	0.21817	0.43633	0.97253	-0.078
Mof_H 	H 	0.22947	0.45893	0.99473	-0.041
Mof_C 	C 	0.18467	0.36933	0.90823	0.007
Mof_N 	N 	0.16847	0.33693	0.87413	-0.067
Mof_C 	C 	0.86973	0.73947	0.23757	0.069
Mof_N 	N 	0.85583	0.71167	0.20247	-0.067
Mof_C 	C 	0.89803	0.79607	0.30797	0.12
Mof_H 	H 	0.90763	0.81527	0.33077	0.07
Mof_C 	C 	0.88483	0.76967	0.30587	-0.078
Mof_H 	H 	0.89613	0.79227	0.32807	-0.041
Mof_C 	C 	0.85133	0.70267	0.24157	0.007
Mof_N 	N 	0.83513	0.67027	0.20747	-0.066
_end
