data_functionalizedCrystal
_audit_creation_method	'EQeq! by Chris Wilmer'
_symmetry_space_group_name_H-M	'P1'
_symmetry_Int_Tables_number	1
_symmetry_cell_setting	triclinic
loop_
_symmetry_equiv_pos_as_xyz
  x,y,z
_cell_length_a	13.4938
_cell_length_b	8.7231
_cell_length_c	22.5819
_cell_angle_alpha	90
_cell_angle_beta	95.3654
_cell_angle_gamma	90
loop_
_atom_site_label
_atom_site_type_symbol
_atom_site_fract_x
_atom_site_fract_y
_atom_site_fract_z
_atom_site_charge
Mof_C 	C 	0.98217	0.59639	0.29104	0.11
Mof_H 	H 	0.9457	0.6694	0.2666	0.006
Mof_C 	C 	0.08485	0.59166	0.29026	-0.176
Mof_H 	H 	0.1182	0.6596	0.2659	0.105
Mof_C 	C 	0.13745	0.48387	0.32637	0.162
Mof_C 	C 	0.08678	0.38939	0.36279	-0.182
Mof_H 	H 	0.1216	0.3181	0.3888	0.091
Mof_C 	C 	0.98406	0.40173	0.3602	0.102
Mof_H 	H 	0.949	0.3361	0.3845	-0.001
Mof_C 	C 	0.38822	0.49008	0.29133	0.153
Mof_C 	C 	0.43942	0.54205	0.24445	-0.183
Mof_H 	H 	0.4047	0.5859	0.21	0.088
Mof_C 	C 	0.54241	0.52824	0.24925	0.103
Mof_H 	H 	0.5776	0.5635	0.2174	-0.003
Mof_C 	C 	0.5434	0.41177	0.34101	0.101
Mof_H 	H 	0.5796	0.3644	0.3742	-0.003
Mof_C 	C 	0.44088	0.42065	0.34009	-0.178
Mof_H 	H 	0.4074	0.3805	0.3718	0.097
Mof_C 	C 	0.76926	0.35949	0.18594	0.46
Mof_C 	C 	0.79965	0.38094	0.12332	-0.446
Mof_H 	H 	0.789	0.2837	0.101	0.18
Mof_H 	H 	0.7569	0.4603	0.1026	0.192
Mof_C 	C 	0.90768	0.42831	0.12349	0.14
Mof_C 	C 	0.93803	0.53297	0.08222	-0.076
Mof_H 	H 	0.8898	0.5806	0.0549	0.088
Mof_C 	C 	0.0383	0.56827	0.08072	-0.158
Mof_H 	H 	0.0576	0.6394	0.0521	0.09
Mof_C 	C 	0.11096	0.50128	0.12042	0.264
Mof_C 	C 	0.08071	0.39692	0.16166	-0.166
Mof_H 	H 	0.1289	0.3495	0.1891	0.099
Mof_C 	C 	0.98045	0.36146	0.16305	-0.059
Mof_H 	H 	0.9612	0.2901	0.1916	0.056
Mof_C 	C 	0.21978	0.54021	0.11805	-0.717
Mof_H 	H 	0.2292	0.6523	0.1227	0.183
Mof_H 	H 	0.2598	0.489	0.1513	0.213
Mof_C 	C 	0.25533	0.48928	0.05978	0.826
Mof_C 	C 	0.7546	0.43378	0.45364	0.427
Mof_C 	C 	0.7178	0.50661	0.50921	-0.426
Mof_H 	H 	0.7452	0.4498	0.545	0.175
Mof_H 	H 	0.7413	0.614	0.513	0.166
Mof_C 	C 	0.60526	0.50295	0.50493	0.151
Mof_C 	C 	0.54951	0.62107	0.47661	-0.098
Mof_H 	H 	0.5829	0.7048	0.4603	0.07
Mof_C 	C 	0.44597	0.6188	0.47173	-0.104
Mof_H 	H 	0.4098	0.7008	0.4523	0.088
Mof_Mn	Mn	0.76268	0.48804	0.31346	0.86
Mof_N 	N 	0.93202	0.50252	0.32474	-0.194
Mof_N 	N 	0.24253	0.46082	0.32931	-0.107
Mof_N 	N 	0.28271	0.51459	0.2862	-0.103
Mof_N 	N 	0.59431	0.46695	0.29721	-0.198
Mof_O 	O 	0.77262	0.47789	0.21897	-0.389
Mof_O 	O 	0.7433	0.23084	0.20314	-0.404
Mof_O 	O 	0.26899	0.57585	0.01955	-0.308
Mof_O 	O 	0.26557	0.33858	0.05726	-0.388
Mof_H 	H 	0.2727	0.313	0.021	0.155
Mof_O 	O 	0.75523	0.51772	0.40846	-0.391
Mof_O 	O 	0.77905	0.29361	0.45515	-0.303
Mof_H 	H 	0.2545	0.5449	0.1586	0.04
Mof_H 	H 	0.2273	0.6402	0.0982	0.054
Mof_C 	C 	0.2614	0.4109	0.0824	0.05
Mof_O 	O 	0.2961	0.2983	0.1073	-0.085
Mof_O 	O 	0.2519	0.4306	0.0237	-0.479
Mof_H 	H 	0.2762	0.3114	0.0212	0.185
Mof_C 	C 	0.51783	0.09639	0.20896	0.108
Mof_H 	H 	0.5543	0.1694	0.2334	0.006
Mof_C 	C 	0.41515	0.09166	0.20974	-0.17
Mof_H 	H 	0.3818	0.1596	0.2341	0.102
Mof_C 	C 	0.36255	0.98387	0.17363	0.154
Mof_C 	C 	0.41322	0.88939	0.13721	-0.18
Mof_H 	H 	0.3784	0.8181	0.1112	0.088
Mof_C 	C 	0.51594	0.90173	0.1398	0.096
Mof_H 	H 	0.551	0.8361	0.1155	0.001
Mof_C 	C 	0.11178	0.99008	0.20867	0.143
Mof_C 	C 	0.06058	0.04205	0.25555	-0.174
Mof_H 	H 	0.0953	0.0859	0.29	0.086
Mof_C 	C 	0.95759	0.02824	0.25075	0.102
Mof_H 	H 	0.9224	0.0635	0.2826	-0.001
Mof_C 	C 	0.9566	0.91177	0.15899	0.097
Mof_H 	H 	0.9204	0.8644	0.1258	-0.002
Mof_C 	C 	0.05912	0.92065	0.15991	-0.173
Mof_H 	H 	0.0926	0.8805	0.1282	0.095
Mof_C 	C 	0.73074	0.85949	0.31406	0.459
Mof_C 	C 	0.70035	0.88094	0.37668	-0.443
Mof_H 	H 	0.711	0.7837	0.399	0.179
Mof_H 	H 	0.7431	0.9603	0.3974	0.191
Mof_C 	C 	0.59232	0.92831	0.37651	0.133
Mof_C 	C 	0.56197	0.03297	0.41778	-0.067
Mof_H 	H 	0.6102	0.0806	0.4451	0.086
Mof_C 	C 	0.4617	0.06827	0.41928	-0.165
Mof_H 	H 	0.4424	0.1394	0.4479	0.093
Mof_C 	C 	0.38904	0.00128	0.37958	0.27
Mof_C 	C 	0.41929	0.89692	0.33834	-0.174
Mof_H 	H 	0.3711	0.8495	0.3109	0.102
Mof_C 	C 	0.51955	0.86146	0.33695	-0.052
Mof_H 	H 	0.5388	0.7901	0.3084	0.054
Mof_C 	C 	0.28022	0.04021	0.38195	-0.712
Mof_H 	H 	0.2708	0.1523	0.3773	0.18
Mof_H 	H 	0.2402	0.989	0.3487	0.201
Mof_C 	C 	0.24467	0.98928	0.44022	0.828
Mof_C 	C 	0.7454	0.93378	0.04636	0.424
Mof_C 	C 	0.7822	0.00661	0.99079	-0.428
Mof_H 	H 	0.7548	0.9498	0.955	0.178
Mof_H 	H 	0.7587	0.114	0.987	0.166
Mof_C 	C 	0.89474	0.00295	0.99507	0.148
Mof_C 	C 	0.95049	0.12107	0.02339	-0.098
Mof_H 	H 	0.9171	0.2048	0.0397	0.071
Mof_C 	C 	0.05403	0.1188	0.02827	-0.099
Mof_H 	H 	0.0902	0.2008	0.0477	0.087
Mof_Mn	Mn	0.73732	0.98804	0.18654	0.855
Mof_N 	N 	0.56798	0.00252	0.17526	-0.19
Mof_N 	N 	0.25747	0.96082	0.17069	-0.108
Mof_N 	N 	0.21729	0.01459	0.2138	-0.099
Mof_N 	N 	0.90569	0.96695	0.20279	-0.198
Mof_O 	O 	0.72738	0.97789	0.28103	-0.39
Mof_O 	O 	0.7567	0.73084	0.29686	-0.405
Mof_O 	O 	0.23101	0.07585	0.48045	-0.307
Mof_O 	O 	0.23443	0.83858	0.44274	-0.384
Mof_H 	H 	0.2273	0.813	0.479	0.155
Mof_O 	O 	0.74477	0.01772	0.09154	-0.387
Mof_O 	O 	0.72095	0.79361	0.04485	-0.303
Mof_H 	H 	0.2455	0.0449	0.3414	0.051
Mof_H 	H 	0.2727	0.1402	0.4018	0.055
Mof_C 	C 	0.2386	0.9109	0.4176	0.044
Mof_O 	O 	0.2039	0.7983	0.3927	-0.085
Mof_O 	O 	0.2481	0.9306	0.4763	-0.48
Mof_H 	H 	0.2238	0.8114	0.4788	0.185
Mof_C 	C 	0.01783	0.40361	0.70896	0.109
Mof_H 	H 	0.0543	0.3306	0.7334	0.005
Mof_C 	C 	0.91515	0.40834	0.70974	-0.177
Mof_H 	H 	0.8818	0.3404	0.7341	0.104
Mof_C 	C 	0.86255	0.51613	0.67363	0.161
Mof_C 	C 	0.91322	0.61061	0.63721	-0.183
Mof_H 	H 	0.8784	0.6819	0.6112	0.09
Mof_C 	C 	0.01594	0.59827	0.6398	0.101
Mof_H 	H 	0.051	0.6639	0.6155	-0.001
Mof_C 	C 	0.61178	0.50992	0.70867	0.153
Mof_C 	C 	0.56058	0.45795	0.75555	-0.183
Mof_H 	H 	0.5953	0.4141	0.79	0.088
Mof_C 	C 	0.45759	0.47176	0.75075	0.103
Mof_H 	H 	0.4224	0.4365	0.7826	-0.003
Mof_C 	C 	0.4566	0.58823	0.65899	0.101
Mof_H 	H 	0.4204	0.6356	0.6258	-0.003
Mof_C 	C 	0.55912	0.57935	0.65991	-0.178
Mof_H 	H 	0.5926	0.6195	0.6282	0.097
Mof_C 	C 	0.23074	0.64051	0.81406	0.46
Mof_C 	C 	0.20035	0.61906	0.87668	-0.446
Mof_H 	H 	0.211	0.7163	0.899	0.18
Mof_H 	H 	0.2431	0.5397	0.8974	0.192
Mof_C 	C 	0.09232	0.57169	0.87651	0.14
Mof_C 	C 	0.06197	0.46703	0.91778	-0.076
Mof_H 	H 	0.1102	0.4194	0.9451	0.088
Mof_C 	C 	0.9617	0.43173	0.91928	-0.158
Mof_H 	H 	0.9424	0.3606	0.9479	0.09
Mof_C 	C 	0.88904	0.49872	0.87958	0.264
Mof_C 	C 	0.91929	0.60308	0.83834	-0.166
Mof_H 	H 	0.8711	0.6505	0.8109	0.099
Mof_C 	C 	0.01955	0.63854	0.83695	-0.059
Mof_H 	H 	0.0388	0.7099	0.8084	0.056
Mof_C 	C 	0.78022	0.45979	0.88195	-0.717
Mof_H 	H 	0.7708	0.3477	0.8773	0.183
Mof_H 	H 	0.7402	0.511	0.8487	0.213
Mof_C 	C 	0.74467	0.51072	0.94022	0.826
Mof_C 	C 	0.2454	0.56622	0.54636	0.427
Mof_C 	C 	0.2822	0.49339	0.49079	-0.426
Mof_H 	H 	0.2548	0.5502	0.455	0.175
Mof_H 	H 	0.2587	0.386	0.487	0.166
Mof_C 	C 	0.39474	0.49705	0.49507	0.151
Mof_C 	C 	0.45049	0.37893	0.52339	-0.098
Mof_H 	H 	0.4171	0.2952	0.5397	0.07
Mof_C 	C 	0.55403	0.3812	0.52827	-0.104
Mof_H 	H 	0.5902	0.2992	0.5477	0.088
Mof_Mn	Mn	0.23732	0.51196	0.68654	0.86
Mof_N 	N 	0.06798	0.49748	0.67526	-0.194
Mof_N 	N 	0.75747	0.53918	0.67069	-0.107
Mof_N 	N 	0.71729	0.48541	0.7138	-0.103
Mof_N 	N 	0.40569	0.53305	0.70279	-0.198
Mof_O 	O 	0.22738	0.52211	0.78103	-0.389
Mof_O 	O 	0.2567	0.76916	0.79686	-0.404
Mof_O 	O 	0.73101	0.42415	0.98045	-0.308
Mof_O 	O 	0.73443	0.66142	0.94274	-0.388
Mof_H 	H 	0.7273	0.687	0.979	0.155
Mof_O 	O 	0.24477	0.48228	0.59154	-0.391
Mof_O 	O 	0.22095	0.70639	0.54485	-0.303
Mof_H 	H 	0.7455	0.4551	0.8414	0.04
Mof_H 	H 	0.7727	0.3598	0.9018	0.054
Mof_C 	C 	0.7386	0.5891	0.9176	0.05
Mof_O 	O 	0.7039	0.7017	0.8927	-0.085
Mof_O 	O 	0.7481	0.5694	0.9763	-0.479
Mof_H 	H 	0.7238	0.6886	0.9788	0.185
Mof_C 	C 	0.48217	0.90361	0.79104	0.108
Mof_H 	H 	0.4457	0.8306	0.7666	0.006
Mof_C 	C 	0.58485	0.90834	0.79026	-0.17
Mof_H 	H 	0.6182	0.8404	0.7659	0.102
Mof_C 	C 	0.63745	0.01613	0.82637	0.154
Mof_C 	C 	0.58678	0.11061	0.86279	-0.18
Mof_H 	H 	0.6216	0.1819	0.8888	0.088
Mof_C 	C 	0.48406	0.09827	0.8602	0.096
Mof_H 	H 	0.449	0.1639	0.8845	0.001
Mof_C 	C 	0.88822	0.00992	0.79133	0.143
Mof_C 	C 	0.93942	0.95795	0.74445	-0.174
Mof_H 	H 	0.9047	0.9141	0.71	0.086
Mof_C 	C 	0.04241	0.97176	0.74925	0.102
Mof_H 	H 	0.0776	0.9365	0.7174	-0.001
Mof_C 	C 	0.0434	0.08823	0.84101	0.097
Mof_H 	H 	0.0796	0.1356	0.8742	-0.002
Mof_C 	C 	0.94088	0.07935	0.84009	-0.173
Mof_H 	H 	0.9074	0.1195	0.8718	0.095
Mof_C 	C 	0.26926	0.14051	0.68594	0.459
Mof_C 	C 	0.29965	0.11906	0.62332	-0.443
Mof_H 	H 	0.289	0.2163	0.601	0.179
Mof_H 	H 	0.2569	0.0397	0.6026	0.191
Mof_C 	C 	0.40768	0.07169	0.62349	0.133
Mof_C 	C 	0.43803	0.96703	0.58222	-0.067
Mof_H 	H 	0.3898	0.9194	0.5549	0.086
Mof_C 	C 	0.5383	0.93173	0.58072	-0.165
Mof_H 	H 	0.5576	0.8606	0.5521	0.093
Mof_C 	C 	0.61096	0.99872	0.62042	0.27
Mof_C 	C 	0.58071	0.10308	0.66166	-0.174
Mof_H 	H 	0.6289	0.1505	0.6891	0.102
Mof_C 	C 	0.48045	0.13854	0.66305	-0.052
Mof_H 	H 	0.4612	0.2099	0.6916	0.054
Mof_C 	C 	0.71978	0.95979	0.61805	-0.712
Mof_H 	H 	0.7292	0.8477	0.6227	0.18
Mof_H 	H 	0.7598	0.011	0.6513	0.201
Mof_C 	C 	0.75533	0.01072	0.55978	0.828
Mof_C 	C 	0.2546	0.06622	0.95364	0.424
Mof_C 	C 	0.2178	0.99339	0.00921	-0.428
Mof_H 	H 	0.2452	0.0502	0.045	0.178
Mof_H 	H 	0.2413	0.886	0.013	0.166
Mof_C 	C 	0.10526	0.99705	0.00493	0.148
Mof_C 	C 	0.04951	0.87893	0.97661	-0.098
Mof_H 	H 	0.0829	0.7952	0.9603	0.071
Mof_C 	C 	0.94597	0.8812	0.97173	-0.099
Mof_H 	H 	0.9098	0.7992	0.9523	0.087
Mof_Mn	Mn	0.26268	0.01196	0.81346	0.855
Mof_N 	N 	0.43202	0.99748	0.82474	-0.19
Mof_N 	N 	0.74253	0.03918	0.82931	-0.108
Mof_N 	N 	0.78271	0.98541	0.7862	-0.099
Mof_N 	N 	0.09431	0.03305	0.79721	-0.198
Mof_O 	O 	0.27262	0.02211	0.71897	-0.39
Mof_O 	O 	0.2433	0.26916	0.70314	-0.405
Mof_O 	O 	0.76899	0.92415	0.51955	-0.307
Mof_O 	O 	0.76557	0.16142	0.55726	-0.384
Mof_H 	H 	0.7727	0.187	0.521	0.155
Mof_O 	O 	0.25523	0.98228	0.90846	-0.387
Mof_O 	O 	0.27905	0.20639	0.95515	-0.303
Mof_H 	H 	0.7545	0.9551	0.6586	0.051
Mof_H 	H 	0.7273	0.8598	0.5982	0.055
Mof_C 	C 	0.7614	0.0891	0.5824	0.044
Mof_O 	O 	0.7961	0.2017	0.6073	-0.085
Mof_O 	O 	0.7519	0.0694	0.5237	-0.48
Mof_H 	H 	0.7762	0.1886	0.5212	0.185
_end
