data_functionalizedCrystal
_audit_creation_method	'EQeq! by Chris Wilmer'
_symmetry_space_group_name_H-M	'P1'
_symmetry_Int_Tables_number	1
_symmetry_cell_setting	triclinic
loop_
_symmetry_equiv_pos_as_xyz
  x,y,z
_cell_length_a	34.2807
_cell_length_b	34.2807
_cell_length_c	34.2807
_cell_angle_alpha	90
_cell_angle_beta	90
_cell_angle_gamma	90
loop_
_atom_site_label
_atom_site_type_symbol
_atom_site_fract_x
_atom_site_fract_y
_atom_site_fract_z
_atom_site_charge
Mof_C 	C 	0.191	0.212	0.0185	-0.004
Mof_C 	C 	0.191	0.712	0.5185	-0.004
Mof_C 	C 	0.691	0.212	0.5185	-0.004
Mof_C 	C 	0.691	0.712	0.0185	-0.004
Mof_C 	C 	0.809	0.788	0.0185	-0.004
Mof_C 	C 	0.809	0.288	0.5185	-0.004
Mof_C 	C 	0.309	0.788	0.5185	-0.004
Mof_C 	C 	0.309	0.288	0.0185	-0.004
Mof_C 	C 	0.809	0.212	0.9815	-0.004
Mof_C 	C 	0.809	0.712	0.4815	-0.004
Mof_C 	C 	0.309	0.212	0.4815	-0.004
Mof_C 	C 	0.309	0.712	0.9815	-0.004
Mof_C 	C 	0.191	0.788	0.9815	-0.004
Mof_C 	C 	0.191	0.288	0.4815	-0.004
Mof_C 	C 	0.691	0.788	0.4815	-0.004
Mof_C 	C 	0.691	0.288	0.9815	-0.004
Mof_C 	C 	0.0185	0.191	0.212	-0.004
Mof_C 	C 	0.0185	0.691	0.712	-0.004
Mof_C 	C 	0.5185	0.191	0.712	-0.004
Mof_C 	C 	0.5185	0.691	0.212	-0.004
Mof_C 	C 	0.0185	0.809	0.788	-0.004
Mof_C 	C 	0.0185	0.309	0.288	-0.004
Mof_C 	C 	0.5185	0.809	0.288	-0.004
Mof_C 	C 	0.5185	0.309	0.788	-0.004
Mof_C 	C 	0.9815	0.809	0.212	-0.004
Mof_C 	C 	0.9815	0.309	0.712	-0.004
Mof_C 	C 	0.4815	0.809	0.712	-0.004
Mof_C 	C 	0.4815	0.309	0.212	-0.004
Mof_C 	C 	0.9815	0.191	0.788	-0.004
Mof_C 	C 	0.9815	0.691	0.288	-0.004
Mof_C 	C 	0.4815	0.191	0.288	-0.004
Mof_C 	C 	0.4815	0.691	0.788	-0.004
Mof_C 	C 	0.212	0.0185	0.191	-0.004
Mof_C 	C 	0.212	0.5185	0.691	-0.004
Mof_C 	C 	0.712	0.0185	0.691	-0.004
Mof_C 	C 	0.712	0.5185	0.191	-0.004
Mof_C 	C 	0.788	0.0185	0.809	-0.004
Mof_C 	C 	0.788	0.5185	0.309	-0.004
Mof_C 	C 	0.288	0.0185	0.309	-0.004
Mof_C 	C 	0.288	0.5185	0.809	-0.004
Mof_C 	C 	0.212	0.9815	0.809	-0.004
Mof_C 	C 	0.212	0.4815	0.309	-0.004
Mof_C 	C 	0.712	0.9815	0.309	-0.004
Mof_C 	C 	0.712	0.4815	0.809	-0.004
Mof_C 	C 	0.788	0.9815	0.191	-0.004
Mof_C 	C 	0.788	0.4815	0.691	-0.004
Mof_C 	C 	0.288	0.9815	0.691	-0.004
Mof_C 	C 	0.288	0.4815	0.191	-0.004
Mof_C 	C 	0.212	0.191	0.9815	-0.004
Mof_C 	C 	0.212	0.691	0.4815	-0.004
Mof_C 	C 	0.712	0.191	0.4815	-0.004
Mof_C 	C 	0.712	0.691	0.9815	-0.004
Mof_C 	C 	0.788	0.809	0.9815	-0.004
Mof_C 	C 	0.788	0.309	0.4815	-0.004
Mof_C 	C 	0.288	0.809	0.4815	-0.004
Mof_C 	C 	0.288	0.309	0.9815	-0.004
Mof_C 	C 	0.212	0.809	0.0185	-0.004
Mof_C 	C 	0.212	0.309	0.5185	-0.004
Mof_C 	C 	0.712	0.809	0.5185	-0.004
Mof_C 	C 	0.712	0.309	0.0185	-0.004
Mof_C 	C 	0.788	0.191	0.0185	-0.004
Mof_C 	C 	0.788	0.691	0.5185	-0.004
Mof_C 	C 	0.288	0.191	0.5185	-0.004
Mof_C 	C 	0.288	0.691	0.0185	-0.004
Mof_C 	C 	0.191	0.0185	0.788	-0.004
Mof_C 	C 	0.191	0.5185	0.288	-0.004
Mof_C 	C 	0.691	0.0185	0.288	-0.004
Mof_C 	C 	0.691	0.5185	0.788	-0.004
Mof_C 	C 	0.809	0.0185	0.212	-0.004
Mof_C 	C 	0.809	0.5185	0.712	-0.004
Mof_C 	C 	0.309	0.0185	0.712	-0.004
Mof_C 	C 	0.309	0.5185	0.212	-0.004
Mof_C 	C 	0.809	0.9815	0.788	-0.004
Mof_C 	C 	0.809	0.4815	0.288	-0.004
Mof_C 	C 	0.309	0.9815	0.288	-0.004
Mof_C 	C 	0.309	0.4815	0.788	-0.004
Mof_C 	C 	0.191	0.9815	0.212	-0.004
Mof_C 	C 	0.191	0.4815	0.712	-0.004
Mof_C 	C 	0.691	0.9815	0.712	-0.004
Mof_C 	C 	0.691	0.4815	0.212	-0.004
Mof_C 	C 	0.0185	0.212	0.809	-0.004
Mof_C 	C 	0.0185	0.712	0.309	-0.004
Mof_C 	C 	0.5185	0.212	0.309	-0.004
Mof_C 	C 	0.5185	0.712	0.809	-0.004
Mof_C 	C 	0.0185	0.788	0.191	-0.004
Mof_C 	C 	0.0185	0.288	0.691	-0.004
Mof_C 	C 	0.5185	0.788	0.691	-0.004
Mof_C 	C 	0.5185	0.288	0.191	-0.004
Mof_C 	C 	0.9815	0.212	0.191	-0.004
Mof_C 	C 	0.9815	0.712	0.691	-0.004
Mof_C 	C 	0.4815	0.212	0.691	-0.004
Mof_C 	C 	0.4815	0.712	0.191	-0.004
Mof_C 	C 	0.9815	0.788	0.809	-0.004
Mof_C 	C 	0.9815	0.288	0.309	-0.004
Mof_C 	C 	0.4815	0.788	0.309	-0.004
Mof_C 	C 	0.4815	0.288	0.809	-0.004
Mof_C 	C 	0.809	0.788	0.9815	-0.004
Mof_C 	C 	0.809	0.288	0.4815	-0.004
Mof_C 	C 	0.309	0.788	0.4815	-0.004
Mof_C 	C 	0.309	0.288	0.9815	-0.004
Mof_C 	C 	0.191	0.212	0.9815	-0.004
Mof_C 	C 	0.191	0.712	0.4815	-0.004
Mof_C 	C 	0.691	0.212	0.4815	-0.004
Mof_C 	C 	0.691	0.712	0.9815	-0.004
Mof_C 	C 	0.191	0.788	0.0185	-0.004
Mof_C 	C 	0.191	0.288	0.5185	-0.004
Mof_C 	C 	0.691	0.788	0.5185	-0.004
Mof_C 	C 	0.691	0.288	0.0185	-0.004
Mof_C 	C 	0.809	0.212	0.0185	-0.004
Mof_C 	C 	0.809	0.712	0.5185	-0.004
Mof_C 	C 	0.309	0.212	0.5185	-0.004
Mof_C 	C 	0.309	0.712	0.0185	-0.004
Mof_C 	C 	0.9815	0.809	0.788	-0.004
Mof_C 	C 	0.9815	0.309	0.288	-0.004
Mof_C 	C 	0.4815	0.809	0.288	-0.004
Mof_C 	C 	0.4815	0.309	0.788	-0.004
Mof_C 	C 	0.9815	0.191	0.212	-0.004
Mof_C 	C 	0.9815	0.691	0.712	-0.004
Mof_C 	C 	0.4815	0.191	0.712	-0.004
Mof_C 	C 	0.4815	0.691	0.212	-0.004
Mof_C 	C 	0.0185	0.191	0.788	-0.004
Mof_C 	C 	0.0185	0.691	0.288	-0.004
Mof_C 	C 	0.5185	0.191	0.288	-0.004
Mof_C 	C 	0.5185	0.691	0.788	-0.004
Mof_C 	C 	0.0185	0.809	0.212	-0.004
Mof_C 	C 	0.0185	0.309	0.712	-0.004
Mof_C 	C 	0.5185	0.809	0.712	-0.004
Mof_C 	C 	0.5185	0.309	0.212	-0.004
Mof_C 	C 	0.788	0.9815	0.809	-0.004
Mof_C 	C 	0.788	0.4815	0.309	-0.004
Mof_C 	C 	0.288	0.9815	0.309	-0.004
Mof_C 	C 	0.288	0.4815	0.809	-0.004
Mof_C 	C 	0.212	0.9815	0.191	-0.004
Mof_C 	C 	0.212	0.4815	0.691	-0.004
Mof_C 	C 	0.712	0.9815	0.691	-0.004
Mof_C 	C 	0.712	0.4815	0.191	-0.004
Mof_C 	C 	0.788	0.0185	0.191	-0.004
Mof_C 	C 	0.788	0.5185	0.691	-0.004
Mof_C 	C 	0.288	0.0185	0.691	-0.004
Mof_C 	C 	0.288	0.5185	0.191	-0.004
Mof_C 	C 	0.212	0.0185	0.809	-0.004
Mof_C 	C 	0.212	0.5185	0.309	-0.004
Mof_C 	C 	0.712	0.0185	0.309	-0.004
Mof_C 	C 	0.712	0.5185	0.809	-0.004
Mof_C 	C 	0.788	0.809	0.0185	-0.004
Mof_C 	C 	0.788	0.309	0.5185	-0.004
Mof_C 	C 	0.288	0.809	0.5185	-0.004
Mof_C 	C 	0.288	0.309	0.0185	-0.004
Mof_C 	C 	0.212	0.191	0.0185	-0.004
Mof_C 	C 	0.212	0.691	0.5185	-0.004
Mof_C 	C 	0.712	0.191	0.5185	-0.004
Mof_C 	C 	0.712	0.691	0.0185	-0.004
Mof_C 	C 	0.788	0.191	0.9815	-0.004
Mof_C 	C 	0.788	0.691	0.4815	-0.004
Mof_C 	C 	0.288	0.191	0.4815	-0.004
Mof_C 	C 	0.288	0.691	0.9815	-0.004
Mof_C 	C 	0.212	0.809	0.9815	-0.004
Mof_C 	C 	0.212	0.309	0.4815	-0.004
Mof_C 	C 	0.712	0.809	0.4815	-0.004
Mof_C 	C 	0.712	0.309	0.9815	-0.004
Mof_C 	C 	0.809	0.9815	0.212	-0.004
Mof_C 	C 	0.809	0.4815	0.712	-0.004
Mof_C 	C 	0.309	0.9815	0.712	-0.004
Mof_C 	C 	0.309	0.4815	0.212	-0.004
Mof_C 	C 	0.191	0.9815	0.788	-0.004
Mof_C 	C 	0.191	0.4815	0.288	-0.004
Mof_C 	C 	0.691	0.9815	0.288	-0.004
Mof_C 	C 	0.691	0.4815	0.788	-0.004
Mof_C 	C 	0.191	0.0185	0.212	-0.004
Mof_C 	C 	0.191	0.5185	0.712	-0.004
Mof_C 	C 	0.691	0.0185	0.712	-0.004
Mof_C 	C 	0.691	0.5185	0.212	-0.004
Mof_C 	C 	0.809	0.0185	0.788	-0.004
Mof_C 	C 	0.809	0.5185	0.288	-0.004
Mof_C 	C 	0.309	0.0185	0.288	-0.004
Mof_C 	C 	0.309	0.5185	0.788	-0.004
Mof_C 	C 	0.9815	0.788	0.191	-0.004
Mof_C 	C 	0.9815	0.288	0.691	-0.004
Mof_C 	C 	0.4815	0.788	0.691	-0.004
Mof_C 	C 	0.4815	0.288	0.191	-0.004
Mof_C 	C 	0.9815	0.212	0.809	-0.004
Mof_C 	C 	0.9815	0.712	0.309	-0.004
Mof_C 	C 	0.4815	0.212	0.309	-0.004
Mof_C 	C 	0.4815	0.712	0.809	-0.004
Mof_C 	C 	0.0185	0.788	0.809	-0.004
Mof_C 	C 	0.0185	0.288	0.309	-0.004
Mof_C 	C 	0.5185	0.788	0.309	-0.004
Mof_C 	C 	0.5185	0.288	0.809	-0.004
Mof_C 	C 	0.0185	0.212	0.191	-0.004
Mof_C 	C 	0.0185	0.712	0.691	-0.004
Mof_C 	C 	0.5185	0.212	0.691	-0.004
Mof_C 	C 	0.5185	0.712	0.191	-0.004
Mof_Zn	Zn	0.21728	0.21728	0.21728	1.216
Mof_Zn	Zn	0.21728	0.71728	0.71728	1.216
Mof_Zn	Zn	0.71728	0.21728	0.71728	1.216
Mof_Zn	Zn	0.71728	0.71728	0.21728	1.216
Mof_Zn	Zn	0.78272	0.78272	0.21728	1.216
Mof_Zn	Zn	0.78272	0.28272	0.71728	1.216
Mof_Zn	Zn	0.28272	0.78272	0.71728	1.216
Mof_Zn	Zn	0.28272	0.28272	0.21728	1.216
Mof_Zn	Zn	0.78272	0.21728	0.78272	1.216
Mof_Zn	Zn	0.78272	0.71728	0.28272	1.216
Mof_Zn	Zn	0.28272	0.21728	0.28272	1.216
Mof_Zn	Zn	0.28272	0.71728	0.78272	1.216
Mof_Zn	Zn	0.21728	0.78272	0.78272	1.216
Mof_Zn	Zn	0.21728	0.28272	0.28272	1.216
Mof_Zn	Zn	0.71728	0.78272	0.28272	1.216
Mof_Zn	Zn	0.71728	0.28272	0.78272	1.216
Mof_Zn	Zn	0.21728	0.21728	0.78272	1.216
Mof_Zn	Zn	0.21728	0.71728	0.28272	1.216
Mof_Zn	Zn	0.71728	0.21728	0.28272	1.216
Mof_Zn	Zn	0.71728	0.71728	0.78272	1.216
Mof_Zn	Zn	0.78272	0.78272	0.78272	1.216
Mof_Zn	Zn	0.78272	0.28272	0.28272	1.216
Mof_Zn	Zn	0.28272	0.78272	0.28272	1.216
Mof_Zn	Zn	0.28272	0.28272	0.78272	1.216
Mof_Zn	Zn	0.21728	0.78272	0.21728	1.216
Mof_Zn	Zn	0.21728	0.28272	0.71728	1.216
Mof_Zn	Zn	0.71728	0.78272	0.71728	1.216
Mof_Zn	Zn	0.71728	0.28272	0.21728	1.216
Mof_Zn	Zn	0.78272	0.21728	0.21728	1.216
Mof_Zn	Zn	0.78272	0.71728	0.71728	1.216
Mof_Zn	Zn	0.28272	0.21728	0.71728	1.216
Mof_Zn	Zn	0.28272	0.71728	0.21728	1.216
Mof_O 	O 	0.25	0.25	0.25	-0.952
Mof_O 	O 	0.75	0.75	0.25	-0.952
Mof_O 	O 	0.75	0.25	0.75	-0.952
Mof_O 	O 	0.25	0.75	0.75	-0.952
Mof_O 	O 	0.25	0.25	0.75	-0.952
Mof_O 	O 	0.75	0.75	0.75	-0.952
Mof_O 	O 	0.75	0.25	0.25	-0.952
Mof_O 	O 	0.25	0.75	0.25	-0.952
Mof_O 	O 	0.228	0.228	0.1623	-0.547
Mof_C 	C 	0.2267	0.2267	0.0793	0.007
Mof_H 	H 	0.2094	0.2094	0.0923	0.045
Mof_C 	C 	0.2262	0.2262	0.0387	-0.006
Mof_O 	O 	0.228	0.728	0.6623	-0.547
Mof_C 	C 	0.2267	0.7267	0.5793	0.007
Mof_H 	H 	0.2094	0.7094	0.5923	0.045
Mof_C 	C 	0.2262	0.7262	0.5387	-0.006
Mof_O 	O 	0.728	0.228	0.6623	-0.547
Mof_C 	C 	0.7267	0.2267	0.5793	0.007
Mof_H 	H 	0.7094	0.2094	0.5923	0.045
Mof_C 	C 	0.7262	0.2262	0.5387	-0.006
Mof_O 	O 	0.728	0.728	0.1623	-0.547
Mof_C 	C 	0.7267	0.7267	0.0793	0.007
Mof_H 	H 	0.7094	0.7094	0.0923	0.045
Mof_C 	C 	0.7262	0.7262	0.0387	-0.006
Mof_O 	O 	0.772	0.772	0.1623	-0.547
Mof_C 	C 	0.7733	0.7733	0.0793	0.007
Mof_H 	H 	0.7906	0.7906	0.0923	0.045
Mof_C 	C 	0.7738	0.7738	0.0387	-0.006
Mof_O 	O 	0.772	0.272	0.6623	-0.547
Mof_C 	C 	0.7733	0.2733	0.5793	0.007
Mof_H 	H 	0.7906	0.2906	0.5923	0.045
Mof_C 	C 	0.7738	0.2738	0.5387	-0.006
Mof_O 	O 	0.272	0.772	0.6623	-0.547
Mof_C 	C 	0.2733	0.7733	0.5793	0.007
Mof_H 	H 	0.2906	0.7906	0.5923	0.045
Mof_C 	C 	0.2738	0.7738	0.5387	-0.006
Mof_O 	O 	0.272	0.272	0.1623	-0.547
Mof_C 	C 	0.2733	0.2733	0.0793	0.007
Mof_H 	H 	0.2906	0.2906	0.0923	0.045
Mof_C 	C 	0.2738	0.2738	0.0387	-0.006
Mof_O 	O 	0.772	0.228	0.8377	-0.547
Mof_C 	C 	0.7733	0.2267	0.9207	0.007
Mof_H 	H 	0.7906	0.2094	0.9077	0.045
Mof_C 	C 	0.7738	0.2262	0.9613	-0.006
Mof_O 	O 	0.772	0.728	0.3377	-0.547
Mof_C 	C 	0.7733	0.7267	0.4207	0.007
Mof_H 	H 	0.7906	0.7094	0.4077	0.045
Mof_C 	C 	0.7738	0.7262	0.4613	-0.006
Mof_O 	O 	0.272	0.228	0.3377	-0.547
Mof_C 	C 	0.2733	0.2267	0.4207	0.007
Mof_H 	H 	0.2906	0.2094	0.4077	0.045
Mof_C 	C 	0.2738	0.2262	0.4613	-0.006
Mof_O 	O 	0.272	0.728	0.8377	-0.547
Mof_C 	C 	0.2733	0.7267	0.9207	0.007
Mof_H 	H 	0.2906	0.7094	0.9077	0.045
Mof_C 	C 	0.2738	0.7262	0.9613	-0.006
Mof_O 	O 	0.228	0.772	0.8377	-0.547
Mof_C 	C 	0.2267	0.7733	0.9207	0.007
Mof_H 	H 	0.2094	0.7906	0.9077	0.045
Mof_C 	C 	0.2262	0.7738	0.9613	-0.006
Mof_O 	O 	0.228	0.272	0.3377	-0.547
Mof_C 	C 	0.2267	0.2733	0.4207	0.007
Mof_H 	H 	0.2094	0.2906	0.4077	0.045
Mof_C 	C 	0.2262	0.2738	0.4613	-0.006
Mof_O 	O 	0.728	0.772	0.3377	-0.547
Mof_C 	C 	0.7267	0.7733	0.4207	0.007
Mof_H 	H 	0.7094	0.7906	0.4077	0.045
Mof_C 	C 	0.7262	0.7738	0.4613	-0.006
Mof_O 	O 	0.728	0.272	0.8377	-0.547
Mof_C 	C 	0.7267	0.2733	0.9207	0.007
Mof_H 	H 	0.7094	0.2906	0.9077	0.045
Mof_C 	C 	0.7262	0.2738	0.9613	-0.006
Mof_O 	O 	0.1623	0.228	0.228	-0.547
Mof_C 	C 	0.0793	0.2267	0.2267	0.007
Mof_H 	H 	0.0923	0.2094	0.2094	0.045
Mof_C 	C 	0.0387	0.2262	0.2262	-0.006
Mof_O 	O 	0.1623	0.728	0.728	-0.547
Mof_C 	C 	0.0793	0.7267	0.7267	0.007
Mof_H 	H 	0.0923	0.7094	0.7094	0.045
Mof_C 	C 	0.0387	0.7262	0.7262	-0.006
Mof_O 	O 	0.6623	0.228	0.728	-0.547
Mof_C 	C 	0.5793	0.2267	0.7267	0.007
Mof_H 	H 	0.5923	0.2094	0.7094	0.045
Mof_C 	C 	0.5387	0.2262	0.7262	-0.006
Mof_O 	O 	0.6623	0.728	0.228	-0.547
Mof_C 	C 	0.5793	0.7267	0.2267	0.007
Mof_H 	H 	0.5923	0.7094	0.2094	0.045
Mof_C 	C 	0.5387	0.7262	0.2262	-0.006
Mof_O 	O 	0.1623	0.772	0.772	-0.547
Mof_C 	C 	0.0793	0.7733	0.7733	0.007
Mof_H 	H 	0.0923	0.7906	0.7906	0.045
Mof_C 	C 	0.0387	0.7738	0.7738	-0.006
Mof_O 	O 	0.1623	0.272	0.272	-0.547
Mof_C 	C 	0.0793	0.2733	0.2733	0.007
Mof_H 	H 	0.0923	0.2906	0.2906	0.045
Mof_C 	C 	0.0387	0.2738	0.2738	-0.006
Mof_O 	O 	0.6623	0.772	0.272	-0.547
Mof_C 	C 	0.5793	0.7733	0.2733	0.007
Mof_H 	H 	0.5923	0.7906	0.2906	0.045
Mof_C 	C 	0.5387	0.7738	0.2738	-0.006
Mof_O 	O 	0.6623	0.272	0.772	-0.547
Mof_C 	C 	0.5793	0.2733	0.7733	0.007
Mof_H 	H 	0.5923	0.2906	0.7906	0.045
Mof_C 	C 	0.5387	0.2738	0.7738	-0.006
Mof_O 	O 	0.8377	0.772	0.228	-0.547
Mof_C 	C 	0.9207	0.7733	0.2267	0.007
Mof_H 	H 	0.9077	0.7906	0.2094	0.045
Mof_C 	C 	0.9613	0.7738	0.2262	-0.006
Mof_O 	O 	0.8377	0.272	0.728	-0.547
Mof_C 	C 	0.9207	0.2733	0.7267	0.007
Mof_H 	H 	0.9077	0.2906	0.7094	0.045
Mof_C 	C 	0.9613	0.2738	0.7262	-0.006
Mof_O 	O 	0.3377	0.772	0.728	-0.547
Mof_C 	C 	0.4207	0.7733	0.7267	0.007
Mof_H 	H 	0.4077	0.7906	0.7094	0.045
Mof_C 	C 	0.4613	0.7738	0.7262	-0.006
Mof_O 	O 	0.3377	0.272	0.228	-0.547
Mof_C 	C 	0.4207	0.2733	0.2267	0.007
Mof_H 	H 	0.4077	0.2906	0.2094	0.045
Mof_C 	C 	0.4613	0.2738	0.2262	-0.006
Mof_O 	O 	0.8377	0.228	0.772	-0.547
Mof_C 	C 	0.9207	0.2267	0.7733	0.007
Mof_H 	H 	0.9077	0.2094	0.7906	0.045
Mof_C 	C 	0.9613	0.2262	0.7738	-0.006
Mof_O 	O 	0.8377	0.728	0.272	-0.547
Mof_C 	C 	0.9207	0.7267	0.2733	0.007
Mof_H 	H 	0.9077	0.7094	0.2906	0.045
Mof_C 	C 	0.9613	0.7262	0.2738	-0.006
Mof_O 	O 	0.3377	0.228	0.272	-0.547
Mof_C 	C 	0.4207	0.2267	0.2733	0.007
Mof_H 	H 	0.4077	0.2094	0.2906	0.045
Mof_C 	C 	0.4613	0.2262	0.2738	-0.006
Mof_O 	O 	0.3377	0.728	0.772	-0.547
Mof_C 	C 	0.4207	0.7267	0.7733	0.007
Mof_H 	H 	0.4077	0.7094	0.7906	0.045
Mof_C 	C 	0.4613	0.7262	0.7738	-0.006
Mof_O 	O 	0.228	0.1623	0.228	-0.547
Mof_C 	C 	0.2267	0.0793	0.2267	0.007
Mof_H 	H 	0.2094	0.0923	0.2094	0.045
Mof_C 	C 	0.2262	0.0387	0.2262	-0.006
Mof_O 	O 	0.228	0.6623	0.728	-0.547
Mof_C 	C 	0.2267	0.5793	0.7267	0.007
Mof_H 	H 	0.2094	0.5923	0.7094	0.045
Mof_C 	C 	0.2262	0.5387	0.7262	-0.006
Mof_O 	O 	0.728	0.1623	0.728	-0.547
Mof_C 	C 	0.7267	0.0793	0.7267	0.007
Mof_H 	H 	0.7094	0.0923	0.7094	0.045
Mof_C 	C 	0.7262	0.0387	0.7262	-0.006
Mof_O 	O 	0.728	0.6623	0.228	-0.547
Mof_C 	C 	0.7267	0.5793	0.2267	0.007
Mof_H 	H 	0.7094	0.5923	0.2094	0.045
Mof_C 	C 	0.7262	0.5387	0.2262	-0.006
Mof_O 	O 	0.772	0.1623	0.772	-0.547
Mof_C 	C 	0.7733	0.0793	0.7733	0.007
Mof_H 	H 	0.7906	0.0923	0.7906	0.045
Mof_C 	C 	0.7738	0.0387	0.7738	-0.006
Mof_O 	O 	0.772	0.6623	0.272	-0.547
Mof_C 	C 	0.7733	0.5793	0.2733	0.007
Mof_H 	H 	0.7906	0.5923	0.2906	0.045
Mof_C 	C 	0.7738	0.5387	0.2738	-0.006
Mof_O 	O 	0.272	0.1623	0.272	-0.547
Mof_C 	C 	0.2733	0.0793	0.2733	0.007
Mof_H 	H 	0.2906	0.0923	0.2906	0.045
Mof_C 	C 	0.2738	0.0387	0.2738	-0.006
Mof_O 	O 	0.272	0.6623	0.772	-0.547
Mof_C 	C 	0.2733	0.5793	0.7733	0.007
Mof_H 	H 	0.2906	0.5923	0.7906	0.045
Mof_C 	C 	0.2738	0.5387	0.7738	-0.006
Mof_O 	O 	0.228	0.8377	0.772	-0.547
Mof_C 	C 	0.2267	0.9207	0.7733	0.007
Mof_H 	H 	0.2094	0.9077	0.7906	0.045
Mof_C 	C 	0.2262	0.9613	0.7738	-0.006
Mof_O 	O 	0.228	0.3377	0.272	-0.547
Mof_C 	C 	0.2267	0.4207	0.2733	0.007
Mof_H 	H 	0.2094	0.4077	0.2906	0.045
Mof_C 	C 	0.2262	0.4613	0.2738	-0.006
Mof_O 	O 	0.728	0.8377	0.272	-0.547
Mof_C 	C 	0.7267	0.9207	0.2733	0.007
Mof_H 	H 	0.7094	0.9077	0.2906	0.045
Mof_C 	C 	0.7262	0.9613	0.2738	-0.006
Mof_O 	O 	0.728	0.3377	0.772	-0.547
Mof_C 	C 	0.7267	0.4207	0.7733	0.007
Mof_H 	H 	0.7094	0.4077	0.7906	0.045
Mof_C 	C 	0.7262	0.4613	0.7738	-0.006
Mof_O 	O 	0.772	0.8377	0.228	-0.547
Mof_C 	C 	0.7733	0.9207	0.2267	0.007
Mof_H 	H 	0.7906	0.9077	0.2094	0.045
Mof_C 	C 	0.7738	0.9613	0.2262	-0.006
Mof_O 	O 	0.772	0.3377	0.728	-0.547
Mof_C 	C 	0.7733	0.4207	0.7267	0.007
Mof_H 	H 	0.7906	0.4077	0.7094	0.045
Mof_C 	C 	0.7738	0.4613	0.7262	-0.006
Mof_O 	O 	0.272	0.8377	0.728	-0.547
Mof_C 	C 	0.2733	0.9207	0.7267	0.007
Mof_H 	H 	0.2906	0.9077	0.7094	0.045
Mof_C 	C 	0.2738	0.9613	0.7262	-0.006
Mof_O 	O 	0.272	0.3377	0.228	-0.547
Mof_C 	C 	0.2733	0.4207	0.2267	0.007
Mof_H 	H 	0.2906	0.4077	0.2094	0.045
Mof_C 	C 	0.2738	0.4613	0.2262	-0.006
Mof_O 	O 	0.228	0.228	0.8377	-0.547
Mof_C 	C 	0.2267	0.2267	0.9207	0.007
Mof_H 	H 	0.2094	0.2094	0.9077	0.045
Mof_C 	C 	0.2262	0.2262	0.9613	-0.006
Mof_O 	O 	0.228	0.728	0.3377	-0.547
Mof_C 	C 	0.2267	0.7267	0.4207	0.007
Mof_H 	H 	0.2094	0.7094	0.4077	0.045
Mof_C 	C 	0.2262	0.7262	0.4613	-0.006
Mof_O 	O 	0.728	0.228	0.3377	-0.547
Mof_C 	C 	0.7267	0.2267	0.4207	0.007
Mof_H 	H 	0.7094	0.2094	0.4077	0.045
Mof_C 	C 	0.7262	0.2262	0.4613	-0.006
Mof_O 	O 	0.728	0.728	0.8377	-0.547
Mof_C 	C 	0.7267	0.7267	0.9207	0.007
Mof_H 	H 	0.7094	0.7094	0.9077	0.045
Mof_C 	C 	0.7262	0.7262	0.9613	-0.006
Mof_O 	O 	0.772	0.772	0.8377	-0.547
Mof_C 	C 	0.7733	0.7733	0.9207	0.007
Mof_H 	H 	0.7906	0.7906	0.9077	0.045
Mof_C 	C 	0.7738	0.7738	0.9613	-0.006
Mof_O 	O 	0.772	0.272	0.3377	-0.547
Mof_C 	C 	0.7733	0.2733	0.4207	0.007
Mof_H 	H 	0.7906	0.2906	0.4077	0.045
Mof_C 	C 	0.7738	0.2738	0.4613	-0.006
Mof_O 	O 	0.272	0.772	0.3377	-0.547
Mof_C 	C 	0.2733	0.7733	0.4207	0.007
Mof_H 	H 	0.2906	0.7906	0.4077	0.045
Mof_C 	C 	0.2738	0.7738	0.4613	-0.006
Mof_O 	O 	0.272	0.272	0.8377	-0.547
Mof_C 	C 	0.2733	0.2733	0.9207	0.007
Mof_H 	H 	0.2906	0.2906	0.9077	0.045
Mof_C 	C 	0.2738	0.2738	0.9613	-0.006
Mof_O 	O 	0.228	0.772	0.1623	-0.547
Mof_C 	C 	0.2267	0.7733	0.0793	0.007
Mof_H 	H 	0.2094	0.7906	0.0923	0.045
Mof_C 	C 	0.2262	0.7738	0.0387	-0.006
Mof_O 	O 	0.228	0.272	0.6623	-0.547
Mof_C 	C 	0.2267	0.2733	0.5793	0.007
Mof_H 	H 	0.2094	0.2906	0.5923	0.045
Mof_C 	C 	0.2262	0.2738	0.5387	-0.006
Mof_O 	O 	0.728	0.772	0.6623	-0.547
Mof_C 	C 	0.7267	0.7733	0.5793	0.007
Mof_H 	H 	0.7094	0.7906	0.5923	0.045
Mof_C 	C 	0.7262	0.7738	0.5387	-0.006
Mof_O 	O 	0.728	0.272	0.1623	-0.547
Mof_C 	C 	0.7267	0.2733	0.0793	0.007
Mof_H 	H 	0.7094	0.2906	0.0923	0.045
Mof_C 	C 	0.7262	0.2738	0.0387	-0.006
Mof_O 	O 	0.772	0.228	0.1623	-0.547
Mof_C 	C 	0.7733	0.2267	0.0793	0.007
Mof_H 	H 	0.7906	0.2094	0.0923	0.045
Mof_C 	C 	0.7738	0.2262	0.0387	-0.006
Mof_O 	O 	0.772	0.728	0.6623	-0.547
Mof_C 	C 	0.7733	0.7267	0.5793	0.007
Mof_H 	H 	0.7906	0.7094	0.5923	0.045
Mof_C 	C 	0.7738	0.7262	0.5387	-0.006
Mof_O 	O 	0.272	0.228	0.6623	-0.547
Mof_C 	C 	0.2733	0.2267	0.5793	0.007
Mof_H 	H 	0.2906	0.2094	0.5923	0.045
Mof_C 	C 	0.2738	0.2262	0.5387	-0.006
Mof_O 	O 	0.272	0.728	0.1623	-0.547
Mof_C 	C 	0.2733	0.7267	0.0793	0.007
Mof_H 	H 	0.2906	0.7094	0.0923	0.045
Mof_C 	C 	0.2738	0.7262	0.0387	-0.006
Mof_O 	O 	0.228	0.1623	0.772	-0.547
Mof_C 	C 	0.2267	0.0793	0.7733	0.007
Mof_H 	H 	0.2094	0.0923	0.7906	0.045
Mof_C 	C 	0.2262	0.0387	0.7738	-0.006
Mof_O 	O 	0.228	0.6623	0.272	-0.547
Mof_C 	C 	0.2267	0.5793	0.2733	0.007
Mof_H 	H 	0.2094	0.5923	0.2906	0.045
Mof_C 	C 	0.2262	0.5387	0.2738	-0.006
Mof_O 	O 	0.728	0.1623	0.272	-0.547
Mof_C 	C 	0.7267	0.0793	0.2733	0.007
Mof_H 	H 	0.7094	0.0923	0.2906	0.045
Mof_C 	C 	0.7262	0.0387	0.2738	-0.006
Mof_O 	O 	0.728	0.6623	0.772	-0.547
Mof_C 	C 	0.7267	0.5793	0.7733	0.007
Mof_H 	H 	0.7094	0.5923	0.7906	0.045
Mof_C 	C 	0.7262	0.5387	0.7738	-0.006
Mof_O 	O 	0.772	0.1623	0.228	-0.547
Mof_C 	C 	0.7733	0.0793	0.2267	0.007
Mof_H 	H 	0.7906	0.0923	0.2094	0.045
Mof_C 	C 	0.7738	0.0387	0.2262	-0.006
Mof_O 	O 	0.772	0.6623	0.728	-0.547
Mof_C 	C 	0.7733	0.5793	0.7267	0.007
Mof_H 	H 	0.7906	0.5923	0.7094	0.045
Mof_C 	C 	0.7738	0.5387	0.7262	-0.006
Mof_O 	O 	0.272	0.1623	0.728	-0.547
Mof_C 	C 	0.2733	0.0793	0.7267	0.007
Mof_H 	H 	0.2906	0.0923	0.7094	0.045
Mof_C 	C 	0.2738	0.0387	0.7262	-0.006
Mof_O 	O 	0.272	0.6623	0.228	-0.547
Mof_C 	C 	0.2733	0.5793	0.2267	0.007
Mof_H 	H 	0.2906	0.5923	0.2094	0.045
Mof_C 	C 	0.2738	0.5387	0.2262	-0.006
Mof_O 	O 	0.772	0.8377	0.772	-0.547
Mof_C 	C 	0.7733	0.9207	0.7733	0.007
Mof_H 	H 	0.7906	0.9077	0.7906	0.045
Mof_C 	C 	0.7738	0.9613	0.7738	-0.006
Mof_O 	O 	0.772	0.3377	0.272	-0.547
Mof_C 	C 	0.7733	0.4207	0.2733	0.007
Mof_H 	H 	0.7906	0.4077	0.2906	0.045
Mof_C 	C 	0.7738	0.4613	0.2738	-0.006
Mof_O 	O 	0.272	0.8377	0.272	-0.547
Mof_C 	C 	0.2733	0.9207	0.2733	0.007
Mof_H 	H 	0.2906	0.9077	0.2906	0.045
Mof_C 	C 	0.2738	0.9613	0.2738	-0.006
Mof_O 	O 	0.272	0.3377	0.772	-0.547
Mof_C 	C 	0.2733	0.4207	0.7733	0.007
Mof_H 	H 	0.2906	0.4077	0.7906	0.045
Mof_C 	C 	0.2738	0.4613	0.7738	-0.006
Mof_O 	O 	0.228	0.8377	0.228	-0.547
Mof_C 	C 	0.2267	0.9207	0.2267	0.007
Mof_H 	H 	0.2094	0.9077	0.2094	0.045
Mof_C 	C 	0.2262	0.9613	0.2262	-0.006
Mof_O 	O 	0.228	0.3377	0.728	-0.547
Mof_C 	C 	0.2267	0.4207	0.7267	0.007
Mof_H 	H 	0.2094	0.4077	0.7094	0.045
Mof_C 	C 	0.2262	0.4613	0.7262	-0.006
Mof_O 	O 	0.728	0.8377	0.728	-0.547
Mof_C 	C 	0.7267	0.9207	0.7267	0.007
Mof_H 	H 	0.7094	0.9077	0.7094	0.045
Mof_C 	C 	0.7262	0.9613	0.7262	-0.006
Mof_O 	O 	0.728	0.3377	0.228	-0.547
Mof_C 	C 	0.7267	0.4207	0.2267	0.007
Mof_H 	H 	0.7094	0.4077	0.2094	0.045
Mof_C 	C 	0.7262	0.4613	0.2262	-0.006
Mof_O 	O 	0.1623	0.228	0.772	-0.547
Mof_C 	C 	0.0793	0.2267	0.7733	0.007
Mof_H 	H 	0.0923	0.2094	0.7906	0.045
Mof_C 	C 	0.0387	0.2262	0.7738	-0.006
Mof_O 	O 	0.1623	0.728	0.272	-0.547
Mof_C 	C 	0.0793	0.7267	0.2733	0.007
Mof_H 	H 	0.0923	0.7094	0.2906	0.045
Mof_C 	C 	0.0387	0.7262	0.2738	-0.006
Mof_O 	O 	0.6623	0.228	0.272	-0.547
Mof_C 	C 	0.5793	0.2267	0.2733	0.007
Mof_H 	H 	0.5923	0.2094	0.2906	0.045
Mof_C 	C 	0.5387	0.2262	0.2738	-0.006
Mof_O 	O 	0.6623	0.728	0.772	-0.547
Mof_C 	C 	0.5793	0.7267	0.7733	0.007
Mof_H 	H 	0.5923	0.7094	0.7906	0.045
Mof_C 	C 	0.5387	0.7262	0.7738	-0.006
Mof_O 	O 	0.1623	0.772	0.228	-0.547
Mof_C 	C 	0.0793	0.7733	0.2267	0.007
Mof_H 	H 	0.0923	0.7906	0.2094	0.045
Mof_C 	C 	0.0387	0.7738	0.2262	-0.006
Mof_O 	O 	0.1623	0.272	0.728	-0.547
Mof_C 	C 	0.0793	0.2733	0.7267	0.007
Mof_H 	H 	0.0923	0.2906	0.7094	0.045
Mof_C 	C 	0.0387	0.2738	0.7262	-0.006
Mof_O 	O 	0.6623	0.772	0.728	-0.547
Mof_C 	C 	0.5793	0.7733	0.7267	0.007
Mof_H 	H 	0.5923	0.7906	0.7094	0.045
Mof_C 	C 	0.5387	0.7738	0.7262	-0.006
Mof_O 	O 	0.6623	0.272	0.228	-0.547
Mof_C 	C 	0.5793	0.2733	0.2267	0.007
Mof_H 	H 	0.5923	0.2906	0.2094	0.045
Mof_C 	C 	0.5387	0.2738	0.2262	-0.006
Mof_O 	O 	0.8377	0.228	0.228	-0.547
Mof_C 	C 	0.9207	0.2267	0.2267	0.007
Mof_H 	H 	0.9077	0.2094	0.2094	0.045
Mof_C 	C 	0.9613	0.2262	0.2262	-0.006
Mof_O 	O 	0.8377	0.728	0.728	-0.547
Mof_C 	C 	0.9207	0.7267	0.7267	0.007
Mof_H 	H 	0.9077	0.7094	0.7094	0.045
Mof_C 	C 	0.9613	0.7262	0.7262	-0.006
Mof_O 	O 	0.3377	0.228	0.728	-0.547
Mof_C 	C 	0.4207	0.2267	0.7267	0.007
Mof_H 	H 	0.4077	0.2094	0.7094	0.045
Mof_C 	C 	0.4613	0.2262	0.7262	-0.006
Mof_O 	O 	0.3377	0.728	0.228	-0.547
Mof_C 	C 	0.4207	0.7267	0.2267	0.007
Mof_H 	H 	0.4077	0.7094	0.2094	0.045
Mof_C 	C 	0.4613	0.7262	0.2262	-0.006
Mof_O 	O 	0.8377	0.772	0.772	-0.547
Mof_C 	C 	0.9207	0.7733	0.7733	0.007
Mof_H 	H 	0.9077	0.7906	0.7906	0.045
Mof_C 	C 	0.9613	0.7738	0.7738	-0.006
Mof_O 	O 	0.8377	0.272	0.272	-0.547
Mof_C 	C 	0.9207	0.2733	0.2733	0.007
Mof_H 	H 	0.9077	0.2906	0.2906	0.045
Mof_C 	C 	0.9613	0.2738	0.2738	-0.006
Mof_O 	O 	0.3377	0.772	0.272	-0.547
Mof_C 	C 	0.4207	0.7733	0.2733	0.007
Mof_H 	H 	0.4077	0.7906	0.2906	0.045
Mof_C 	C 	0.4613	0.7738	0.2738	-0.006
Mof_O 	O 	0.3377	0.272	0.772	-0.547
Mof_C 	C 	0.4207	0.2733	0.7733	0.007
Mof_H 	H 	0.4077	0.2906	0.7906	0.045
Mof_C 	C 	0.4613	0.2738	0.7738	-0.006
Mof_C 	C 	0.25	0.25	0.1459	0.495
Mof_C 	C 	0.25	0.25	0.1024	-0.133
Mof_C 	C 	0.25	0.25	0.0203	0.004
Mof_C 	C 	0.25	0.75	0.6459	0.495
Mof_C 	C 	0.25	0.75	0.6024	-0.133
Mof_C 	C 	0.25	0.75	0.5203	0.004
Mof_C 	C 	0.75	0.75	0.1459	0.495
Mof_C 	C 	0.75	0.75	0.1024	-0.133
Mof_C 	C 	0.75	0.75	0.0203	0.004
Mof_C 	C 	0.75	0.25	0.6459	0.495
Mof_C 	C 	0.75	0.25	0.6024	-0.133
Mof_C 	C 	0.75	0.25	0.5203	0.004
Mof_C 	C 	0.75	0.25	0.8541	0.495
Mof_C 	C 	0.75	0.25	0.8976	-0.133
Mof_C 	C 	0.75	0.25	0.9797	0.004
Mof_C 	C 	0.75	0.75	0.3541	0.495
Mof_C 	C 	0.75	0.75	0.3976	-0.133
Mof_C 	C 	0.75	0.75	0.4797	0.004
Mof_C 	C 	0.25	0.25	0.3541	0.495
Mof_C 	C 	0.25	0.25	0.3976	-0.133
Mof_C 	C 	0.25	0.25	0.4797	0.004
Mof_C 	C 	0.25	0.75	0.8541	0.495
Mof_C 	C 	0.25	0.75	0.8976	-0.133
Mof_C 	C 	0.25	0.75	0.9797	0.004
Mof_C 	C 	0.1459	0.25	0.25	0.495
Mof_C 	C 	0.1024	0.25	0.25	-0.133
Mof_C 	C 	0.0203	0.25	0.25	0.004
Mof_C 	C 	0.6459	0.25	0.75	0.495
Mof_C 	C 	0.6024	0.25	0.75	-0.133
Mof_C 	C 	0.5203	0.25	0.75	0.004
Mof_C 	C 	0.1459	0.75	0.75	0.495
Mof_C 	C 	0.1024	0.75	0.75	-0.133
Mof_C 	C 	0.0203	0.75	0.75	0.004
Mof_C 	C 	0.6459	0.75	0.25	0.495
Mof_C 	C 	0.6024	0.75	0.25	-0.133
Mof_C 	C 	0.5203	0.75	0.25	0.004
Mof_C 	C 	0.8541	0.75	0.25	0.495
Mof_C 	C 	0.8976	0.75	0.25	-0.133
Mof_C 	C 	0.9797	0.75	0.25	0.004
Mof_C 	C 	0.3541	0.75	0.75	0.495
Mof_C 	C 	0.3976	0.75	0.75	-0.133
Mof_C 	C 	0.4797	0.75	0.75	0.004
Mof_C 	C 	0.3541	0.25	0.25	0.495
Mof_C 	C 	0.3976	0.25	0.25	-0.133
Mof_C 	C 	0.4797	0.25	0.25	0.004
Mof_C 	C 	0.8541	0.25	0.75	0.495
Mof_C 	C 	0.8976	0.25	0.75	-0.133
Mof_C 	C 	0.9797	0.25	0.75	0.004
Mof_C 	C 	0.25	0.1459	0.25	0.495
Mof_C 	C 	0.25	0.1024	0.25	-0.133
Mof_C 	C 	0.25	0.0203	0.25	0.004
Mof_C 	C 	0.25	0.6459	0.75	0.495
Mof_C 	C 	0.25	0.6024	0.75	-0.133
Mof_C 	C 	0.25	0.5203	0.75	0.004
Mof_C 	C 	0.75	0.1459	0.75	0.495
Mof_C 	C 	0.75	0.1024	0.75	-0.133
Mof_C 	C 	0.75	0.0203	0.75	0.004
Mof_C 	C 	0.75	0.6459	0.25	0.495
Mof_C 	C 	0.75	0.6024	0.25	-0.133
Mof_C 	C 	0.75	0.5203	0.25	0.004
Mof_C 	C 	0.25	0.8541	0.75	0.495
Mof_C 	C 	0.25	0.8976	0.75	-0.133
Mof_C 	C 	0.25	0.9797	0.75	0.004
Mof_C 	C 	0.25	0.3541	0.25	0.495
Mof_C 	C 	0.25	0.3976	0.25	-0.133
Mof_C 	C 	0.25	0.4797	0.25	0.004
Mof_C 	C 	0.75	0.8541	0.25	0.495
Mof_C 	C 	0.75	0.8976	0.25	-0.133
Mof_C 	C 	0.75	0.9797	0.25	0.004
Mof_C 	C 	0.75	0.3541	0.75	0.495
Mof_C 	C 	0.75	0.3976	0.75	-0.133
Mof_C 	C 	0.75	0.4797	0.75	0.004
Mof_C 	C 	0.25	0.25	0.8541	0.495
Mof_C 	C 	0.25	0.25	0.8976	-0.133
Mof_C 	C 	0.25	0.25	0.9797	0.004
Mof_C 	C 	0.25	0.75	0.3541	0.495
Mof_C 	C 	0.25	0.75	0.3976	-0.133
Mof_C 	C 	0.25	0.75	0.4797	0.004
Mof_C 	C 	0.75	0.75	0.8541	0.495
Mof_C 	C 	0.75	0.75	0.8976	-0.133
Mof_C 	C 	0.75	0.75	0.9797	0.004
Mof_C 	C 	0.75	0.25	0.3541	0.495
Mof_C 	C 	0.75	0.25	0.3976	-0.133
Mof_C 	C 	0.75	0.25	0.4797	0.004
Mof_C 	C 	0.25	0.75	0.1459	0.495
Mof_C 	C 	0.25	0.75	0.1024	-0.133
Mof_C 	C 	0.25	0.75	0.0203	0.004
Mof_C 	C 	0.25	0.25	0.6459	0.495
Mof_C 	C 	0.25	0.25	0.6024	-0.133
Mof_C 	C 	0.25	0.25	0.5203	0.004
Mof_C 	C 	0.75	0.25	0.1459	0.495
Mof_C 	C 	0.75	0.25	0.1024	-0.133
Mof_C 	C 	0.75	0.25	0.0203	0.004
Mof_C 	C 	0.75	0.75	0.6459	0.495
Mof_C 	C 	0.75	0.75	0.6024	-0.133
Mof_C 	C 	0.75	0.75	0.5203	0.004
Mof_C 	C 	0.25	0.1459	0.75	0.495
Mof_C 	C 	0.25	0.1024	0.75	-0.133
Mof_C 	C 	0.25	0.0203	0.75	0.004
Mof_C 	C 	0.25	0.6459	0.25	0.495
Mof_C 	C 	0.25	0.6024	0.25	-0.133
Mof_C 	C 	0.25	0.5203	0.25	0.004
Mof_C 	C 	0.75	0.1459	0.25	0.495
Mof_C 	C 	0.75	0.1024	0.25	-0.133
Mof_C 	C 	0.75	0.0203	0.25	0.004
Mof_C 	C 	0.75	0.6459	0.75	0.495
Mof_C 	C 	0.75	0.6024	0.75	-0.133
Mof_C 	C 	0.75	0.5203	0.75	0.004
Mof_C 	C 	0.75	0.8541	0.75	0.495
Mof_C 	C 	0.75	0.8976	0.75	-0.133
Mof_C 	C 	0.75	0.9797	0.75	0.004
Mof_C 	C 	0.75	0.3541	0.25	0.495
Mof_C 	C 	0.75	0.3976	0.25	-0.133
Mof_C 	C 	0.75	0.4797	0.25	0.004
Mof_C 	C 	0.25	0.8541	0.25	0.495
Mof_C 	C 	0.25	0.8976	0.25	-0.133
Mof_C 	C 	0.25	0.9797	0.25	0.004
Mof_C 	C 	0.25	0.3541	0.75	0.495
Mof_C 	C 	0.25	0.3976	0.75	-0.133
Mof_C 	C 	0.25	0.4797	0.75	0.004
Mof_C 	C 	0.1459	0.25	0.75	0.495
Mof_C 	C 	0.1024	0.25	0.75	-0.133
Mof_C 	C 	0.0203	0.25	0.75	0.004
Mof_C 	C 	0.6459	0.25	0.25	0.495
Mof_C 	C 	0.6024	0.25	0.25	-0.133
Mof_C 	C 	0.5203	0.25	0.25	0.004
Mof_C 	C 	0.1459	0.75	0.25	0.495
Mof_C 	C 	0.1024	0.75	0.25	-0.133
Mof_C 	C 	0.0203	0.75	0.25	0.004
Mof_C 	C 	0.6459	0.75	0.75	0.495
Mof_C 	C 	0.6024	0.75	0.75	-0.133
Mof_C 	C 	0.5203	0.75	0.75	0.004
Mof_C 	C 	0.8541	0.25	0.25	0.495
Mof_C 	C 	0.8976	0.25	0.25	-0.133
Mof_C 	C 	0.9797	0.25	0.25	0.004
Mof_C 	C 	0.3541	0.25	0.75	0.495
Mof_C 	C 	0.3976	0.25	0.75	-0.133
Mof_C 	C 	0.4797	0.25	0.75	0.004
Mof_C 	C 	0.8541	0.75	0.75	0.495
Mof_C 	C 	0.8976	0.75	0.75	-0.133
Mof_C 	C 	0.9797	0.75	0.75	0.004
Mof_C 	C 	0.3541	0.75	0.25	0.495
Mof_C 	C 	0.3976	0.75	0.25	-0.133
Mof_C 	C 	0.4797	0.75	0.25	0.004
_end
