# CIF file generated by openbabel 2.4.1, see http://openbabel.sf.net
data_I
_chemical_name_common 'image0'
_cell_length_a 14.346
_cell_length_b 16.509
_cell_length_c 9.714
_cell_angle_alpha 90
_cell_angle_beta 90
_cell_angle_gamma 90
_space_group_name_H-M_alt 'P 1'
_space_group_name_Hall 'P 1'
loop_
    _symmetry_equiv_pos_as_xyz
    x,y,z
loop_
    _atom_site_label
    _atom_site_type_symbol
    _atom_site_fract_x
    _atom_site_fract_y
    _atom_site_fract_z
    _atom_site_occupancy
    O1      O    0.09670   0.08671   0.38610   1.000
    C1      C    0.21910   0.21750   0.37870   1.000
    H1      H    0.19840   0.19650   0.29540   1.000
    H2      H    0.05470   0.10990   0.11200   1.000
    C2      C    0.08150   0.04180   0.07840   1.000
    H3      H    0.13760   0.01540   0.11140   1.000
    H4      H    0.08210   0.09720   0.11140   1.000
    O2      O    0.59670   0.58671   0.38610   1.000
    C3      C    0.71910   0.71750   0.37870   1.000
    H5      H    0.69840   0.69650   0.29540   1.000
    H6      H    0.55470   0.60990   0.11200   1.000
    C4      C    0.58150   0.54180   0.07840   1.000
    H7      H    0.63760   0.51540   0.11140   1.000
    H8      H    0.58210   0.59720   0.11140   1.000
    O3      O    0.90330   0.91329   0.38610   1.000
    C5      C    0.78090   0.78250   0.37870   1.000
    H9      H    0.80160   0.80350   0.29540   1.000
    H10     H    0.94530   0.89010   0.11200   1.000
    C6      C    0.91850   0.95820   0.07840   1.000
    H11     H    0.86240   0.98460   0.11140   1.000
    H12     H    0.91790   0.90280   0.11140   1.000
    O4      O    0.40330   0.41329   0.38610   1.000
    C7      C    0.28090   0.28250   0.37870   1.000
    H13     H    0.30160   0.30350   0.29540   1.000
    H14     H    0.44530   0.39010   0.11200   1.000
    C8      C    0.41850   0.45820   0.07840   1.000
    H15     H    0.36240   0.48460   0.11140   1.000
    H16     H    0.41790   0.40280   0.11140   1.000
    O5      O    0.90330   0.08671   0.61390   1.000
    C9      C    0.78090   0.21750   0.62130   1.000
    H17     H    0.80160   0.19650   0.70460   1.000
    H18     H    0.94530   0.10990   0.88800   1.000
    C10     C    0.91850   0.04180   0.92160   1.000
    H19     H    0.86240   0.01540   0.88860   1.000
    H20     H    0.91790   0.09720   0.88860   1.000
    O6      O    0.40330   0.58671   0.61390   1.000
    C11     C    0.28090   0.71750   0.62130   1.000
    H21     H    0.30160   0.69650   0.70460   1.000
    H22     H    0.44530   0.60990   0.88800   1.000
    C12     C    0.41850   0.54180   0.92160   1.000
    H23     H    0.36240   0.51540   0.88860   1.000
    H24     H    0.41790   0.59720   0.88860   1.000
    O7      O    0.09670   0.91329   0.61390   1.000
    C13     C    0.21910   0.78250   0.62130   1.000
    H25     H    0.19840   0.80350   0.70460   1.000
    H26     H    0.05470   0.89010   0.88800   1.000
    C14     C    0.08150   0.95820   0.92160   1.000
    H27     H    0.13760   0.98460   0.88860   1.000
    H28     H    0.08210   0.90280   0.88860   1.000
    O8      O    0.59670   0.41329   0.61390   1.000
    C15     C    0.71910   0.28250   0.62130   1.000
    H29     H    0.69840   0.30350   0.70460   1.000
    H30     H    0.55470   0.39010   0.88800   1.000
    C16     C    0.58150   0.45820   0.92160   1.000
    H31     H    0.63760   0.48460   0.88860   1.000
    H32     H    0.58210   0.40280   0.88860   1.000
    O9      O    0.90330   0.91329   0.61390   1.000
    C17     C    0.78090   0.78250   0.62130   1.000
    H33     H    0.80160   0.80350   0.70460   1.000
    H34     H    0.94530   0.89010   0.88800   1.000
    C18     C    0.91850   0.95820   0.92160   1.000
    H35     H    0.86240   0.98460   0.88860   1.000
    H36     H    0.91790   0.90280   0.88860   1.000
    O10     O    0.40330   0.41329   0.61390   1.000
    C19     C    0.28090   0.28250   0.62130   1.000
    H37     H    0.30160   0.30350   0.70460   1.000
    H38     H    0.44530   0.39010   0.88800   1.000
    C20     C    0.41850   0.45820   0.92160   1.000
    H39     H    0.36240   0.48460   0.88860   1.000
    H40     H    0.41790   0.40280   0.88860   1.000
    O11     O    0.09670   0.08671   0.61390   1.000
    C21     C    0.21910   0.21750   0.62130   1.000
    H41     H    0.19840   0.19650   0.70460   1.000
    H42     H    0.05470   0.10990   0.88800   1.000
    C22     C    0.08150   0.04180   0.92160   1.000
    H43     H    0.13760   0.01540   0.88860   1.000
    H44     H    0.08210   0.09720   0.88860   1.000
    O12     O    0.59670   0.58671   0.61390   1.000
    C23     C    0.71910   0.71750   0.62130   1.000
    H45     H    0.69840   0.69650   0.70460   1.000
    H46     H    0.55470   0.60990   0.88800   1.000
    C24     C    0.58150   0.54180   0.92160   1.000
    H47     H    0.63760   0.51540   0.88860   1.000
    H48     H    0.58210   0.59720   0.88860   1.000
    O13     O    0.09670   0.91329   0.38610   1.000
    C25     C    0.21910   0.78250   0.37870   1.000
    H49     H    0.19840   0.80350   0.29540   1.000
    H50     H    0.05470   0.89010   0.11200   1.000
    C26     C    0.08150   0.95820   0.07840   1.000
    H51     H    0.13760   0.98460   0.11140   1.000
    H52     H    0.08210   0.90280   0.11140   1.000
    O14     O    0.59670   0.41329   0.38610   1.000
    C27     C    0.71910   0.28250   0.37870   1.000
    H53     H    0.69840   0.30350   0.29540   1.000
    H54     H    0.55470   0.39010   0.11200   1.000
    C28     C    0.58150   0.45820   0.07840   1.000
    H55     H    0.63760   0.48460   0.11140   1.000
    H56     H    0.58210   0.40280   0.11140   1.000
    O15     O    0.90330   0.08671   0.38610   1.000
    C29     C    0.78090   0.21750   0.37870   1.000
    H57     H    0.80160   0.19650   0.29540   1.000
    H58     H    0.94530   0.10990   0.11200   1.000
    C30     C    0.91850   0.04180   0.07840   1.000
    H59     H    0.86240   0.01540   0.11140   1.000
    H60     H    0.91790   0.09720   0.11140   1.000
    O16     O    0.40330   0.58671   0.38610   1.000
    C31     C    0.28090   0.71750   0.37870   1.000
    H61     H    0.30160   0.69650   0.29540   1.000
    H62     H    0.44530   0.60990   0.11200   1.000
    C32     C    0.41850   0.54180   0.07840   1.000
    H63     H    0.36240   0.51540   0.11140   1.000
    H64     H    0.41790   0.59720   0.11140   1.000
    Zn1     Zn   0.00000   0.00000   0.34765   1.000
    N1      N    0.00000   0.00000   0.13380   1.000
    Zn2     Zn   0.50000   0.50000   0.34765   1.000
    N2      N    0.50000   0.50000   0.13380   1.000
    Zn3     Zn   0.00000   0.00000   0.65235   1.000
    N3      N    0.00000   0.00000   0.86620   1.000
    Zn4     Zn   0.50000   0.50000   0.65235   1.000
    N4      N    0.50000   0.50000   0.86620   1.000
    C33     C    0.12300   0.11300   0.50000   1.000
    C34     C    0.18820   0.18390   0.50000   1.000
    C35     C    0.62300   0.61300   0.50000   1.000
    C36     C    0.68820   0.68390   0.50000   1.000
    C37     C    0.87700   0.88700   0.50000   1.000
    C38     C    0.81180   0.81610   0.50000   1.000
    C39     C    0.37700   0.38700   0.50000   1.000
    C40     C    0.31180   0.31610   0.50000   1.000
    C41     C    0.87700   0.11300   0.50000   1.000
    C42     C    0.81180   0.18390   0.50000   1.000
    C43     C    0.37700   0.61300   0.50000   1.000
    C44     C    0.31180   0.68390   0.50000   1.000
    C45     C    0.12300   0.88700   0.50000   1.000
    C46     C    0.18820   0.81610   0.50000   1.000
    C47     C    0.62300   0.38700   0.50000   1.000
    C48     C    0.68820   0.31610   0.50000   1.000
    C49     C    0.00000   0.08140   0.07900   1.000
    C50     C    0.50000   0.58140   0.07900   1.000
    C51     C    0.00000   0.91860   0.07900   1.000
    C52     C    0.50000   0.41860   0.07900   1.000
    C53     C    0.00000   0.08140   0.92100   1.000
    C54     C    0.50000   0.58140   0.92100   1.000
    C55     C    0.00000   0.91860   0.92100   1.000
    C56     C    0.50000   0.41860   0.92100   1.000
