# CIF file generated by openbabel 2.4.1, see http://openbabel.sf.net
data_I
_chemical_name_common 'IGOCOX_clean'
_cell_length_a 15.3421
_cell_length_b 15.3421
_cell_length_c 15.3421
_cell_angle_alpha 60
_cell_angle_beta 60
_cell_angle_gamma 60
_space_group_name_H-M_alt 'P 1'
_space_group_name_Hall 'P 1'
loop_
    _symmetry_equiv_pos_as_xyz
    x,y,z
loop_
    _atom_site_label
    _atom_site_type_symbol
    _atom_site_fract_x
    _atom_site_fract_y
    _atom_site_fract_z
    _atom_site_occupancy
    Zn1     Zn   0.15416   0.15416   0.53752   1.000
    Zn2     Zn   0.15416   0.15416   0.15416   1.000
    Zn3     Zn   0.53752   0.15416   0.15416   1.000
    Zn4     Zn   0.15416   0.53752   0.15416   1.000
    Zn5     Zn   0.84584   0.84584   0.46248   1.000
    Zn6     Zn   0.84584   0.84584   0.84584   1.000
    Zn7     Zn   0.84584   0.46248   0.84584   1.000
    Zn8     Zn   0.46248   0.84584   0.84584   1.000
    Zn9     Zn   0.25000   0.25000   0.25000   1.000
    Zn10    Zn   0.75000   0.75000   0.75000   1.000
    H1      H    0.00000   0.34080   0.65920   1.000
    H2      H    0.34080   0.00000   0.00000   1.000
    H3      H    0.65920   0.00000   0.00000   1.000
    H4      H    0.00000   0.65920   0.34080   1.000
    H5      H    0.00000   0.65920   0.00000   1.000
    H6      H    0.34080   0.00000   0.65920   1.000
    H7      H    0.65920   0.00000   0.34080   1.000
    H8      H    0.00000   0.34080   0.00000   1.000
    H9      H    0.00000   0.00000   0.34080   1.000
    H10     H    0.34080   0.65920   0.00000   1.000
    H11     H    0.65920   0.34080   0.00000   1.000
    H12     H    0.00000   0.00000   0.65920   1.000
    C1      C    0.05360   0.40100   0.49180   1.000
    C2      C    0.40100   0.05360   0.05360   1.000
    C3      C    0.49180   0.05360   0.05360   1.000
    C4      C    0.05360   0.49180   0.40100   1.000
    C5      C    0.05360   0.49180   0.05360   1.000
    C6      C    0.40100   0.05360   0.49180   1.000
    C7      C    0.49180   0.05360   0.40100   1.000
    C8      C    0.05360   0.40100   0.05360   1.000
    C9      C    0.05360   0.05360   0.40100   1.000
    C10     C    0.40100   0.49180   0.05360   1.000
    C11     C    0.49180   0.40100   0.05360   1.000
    C12     C    0.05360   0.05360   0.49180   1.000
    C13     C    0.59900   0.94640   0.50820   1.000
    C14     C    0.94640   0.59900   0.94640   1.000
    C15     C    0.94640   0.50820   0.94640   1.000
    C16     C    0.50820   0.94640   0.59900   1.000
    C17     C    0.50820   0.94640   0.94640   1.000
    C18     C    0.94640   0.59900   0.50820   1.000
    C19     C    0.94640   0.50820   0.59900   1.000
    C20     C    0.59900   0.94640   0.94640   1.000
    C21     C    0.94640   0.94640   0.59900   1.000
    C22     C    0.50820   0.59900   0.94640   1.000
    C23     C    0.59900   0.50820   0.94640   1.000
    C24     C    0.94640   0.94640   0.50820   1.000
    C25     C    0.00000   0.40140   0.59860   1.000
    C26     C    0.40140   0.00000   0.00000   1.000
    C27     C    0.59860   0.00000   0.00000   1.000
    C28     C    0.00000   0.59860   0.40140   1.000
    C29     C    0.00000   0.59860   0.00000   1.000
    C30     C    0.40140   0.00000   0.59860   1.000
    C31     C    0.59860   0.00000   0.40140   1.000
    C32     C    0.00000   0.40140   0.00000   1.000
    C33     C    0.00000   0.00000   0.40140   1.000
    C34     C    0.40140   0.59860   0.00000   1.000
    C35     C    0.59860   0.40140   0.00000   1.000
    C36     C    0.00000   0.00000   0.59860   1.000
    N1      N    0.11420   0.31484   0.45676   1.000
    N2      N    0.31484   0.11420   0.11420   1.000
    N3      N    0.45676   0.11420   0.11420   1.000
    N4      N    0.11420   0.45676   0.31484   1.000
    N5      N    0.11420   0.45676   0.11420   1.000
    N6      N    0.31484   0.11420   0.45676   1.000
    N7      N    0.45676   0.11420   0.31484   1.000
    N8      N    0.11420   0.31484   0.11420   1.000
    N9      N    0.11420   0.11420   0.31484   1.000
    N10     N    0.31484   0.45676   0.11420   1.000
    N11     N    0.45676   0.31484   0.11420   1.000
    N12     N    0.11420   0.11420   0.45676   1.000
    N13     N    0.68516   0.88580   0.54324   1.000
    N14     N    0.88580   0.68516   0.88580   1.000
    N15     N    0.88580   0.54324   0.88580   1.000
    N16     N    0.54324   0.88580   0.68516   1.000
    N17     N    0.54324   0.88580   0.88580   1.000
    N18     N    0.88580   0.68516   0.54324   1.000
    N19     N    0.88580   0.54324   0.68516   1.000
    N20     N    0.68516   0.88580   0.88580   1.000
    N21     N    0.88580   0.88580   0.68516   1.000
    N22     N    0.54324   0.68516   0.88580   1.000
    N23     N    0.68516   0.54324   0.88580   1.000
    N24     N    0.88580   0.88580   0.54324   1.000
    N25     N    0.14810   0.35190   0.35190   1.000
    N26     N    0.35190   0.14810   0.14810   1.000
    N27     N    0.14810   0.35190   0.14810   1.000
    N28     N    0.35190   0.14810   0.35190   1.000
    N29     N    0.14810   0.14810   0.35190   1.000
    N30     N    0.35190   0.35190   0.14810   1.000
    N31     N    0.64810   0.85190   0.64810   1.000
    N32     N    0.85190   0.64810   0.85190   1.000
    N33     N    0.64810   0.85190   0.85190   1.000
    N34     N    0.85190   0.64810   0.64810   1.000
    N35     N    0.85190   0.85190   0.64810   1.000
    N36     N    0.64810   0.64810   0.85190   1.000
    Cl1     Cl   0.09812   0.09812   0.70564   1.000
    Cl2     Cl   0.09812   0.09812   0.09812   1.000
    Cl3     Cl   0.70564   0.09812   0.09812   1.000
    Cl4     Cl   0.09812   0.70564   0.09812   1.000
    Cl5     Cl   0.90188   0.90188   0.29436   1.000
    Cl6     Cl   0.90188   0.90188   0.90188   1.000
    Cl7     Cl   0.90188   0.29436   0.90188   1.000
    Cl8     Cl   0.29436   0.90188   0.90188   1.000
