data_functionalizedCrystal
_audit_creation_method	'EQeq! by Chris Wilmer'
_symmetry_space_group_name_H-M	'P1'
_symmetry_Int_Tables_number	1
_symmetry_cell_setting	triclinic
loop_
_symmetry_equiv_pos_as_xyz
  x,y,z
_cell_length_a	46.588
_cell_length_b	46.588
_cell_length_c	46.588
_cell_angle_alpha	90
_cell_angle_beta	90
_cell_angle_gamma	90
loop_
_atom_site_label
_atom_site_type_symbol
_atom_site_fract_x
_atom_site_fract_y
_atom_site_fract_z
_atom_site_charge
Mof_C 	C 	0.6985	0.02349	0.78532	-0.071
Mof_H 	H 	0.6864	0.0392	0.7874	0.055
Mof_C 	C 	0.71988	0.02236	0.76347	-0.022
Mof_H 	H 	0.7212	0.0373	0.7502	0.031
Mof_C 	C 	0.6985	0.52349	0.28532	-0.071
Mof_H 	H 	0.6864	0.5392	0.2874	0.055
Mof_C 	C 	0.71988	0.52236	0.26347	-0.022
Mof_H 	H 	0.7212	0.5373	0.2502	0.031
Mof_C 	C 	0.1985	0.02349	0.28532	-0.071
Mof_H 	H 	0.1864	0.0392	0.2874	0.055
Mof_C 	C 	0.21988	0.02236	0.26347	-0.022
Mof_H 	H 	0.2212	0.0373	0.2502	0.031
Mof_C 	C 	0.1985	0.52349	0.78532	-0.071
Mof_H 	H 	0.1864	0.5392	0.7874	0.055
Mof_C 	C 	0.21988	0.52236	0.76347	-0.022
Mof_H 	H 	0.2212	0.5373	0.7502	0.031
Mof_C 	C 	0.3015	0.97651	0.78532	-0.07
Mof_H 	H 	0.3136	0.9608	0.7874	0.055
Mof_C 	C 	0.28012	0.97764	0.76347	-0.021
Mof_H 	H 	0.2788	0.9627	0.7502	0.031
Mof_C 	C 	0.3015	0.47651	0.28532	-0.071
Mof_H 	H 	0.3136	0.4608	0.2874	0.055
Mof_C 	C 	0.28012	0.47764	0.26347	-0.022
Mof_H 	H 	0.2788	0.4627	0.2502	0.031
Mof_C 	C 	0.8015	0.97651	0.28532	-0.07
Mof_H 	H 	0.8136	0.9608	0.2874	0.055
Mof_C 	C 	0.78012	0.97764	0.26347	-0.021
Mof_H 	H 	0.7788	0.9627	0.2502	0.031
Mof_C 	C 	0.8015	0.47651	0.78532	-0.071
Mof_H 	H 	0.8136	0.4608	0.7874	0.055
Mof_C 	C 	0.78012	0.47764	0.76347	-0.022
Mof_H 	H 	0.7788	0.4627	0.7502	0.031
Mof_C 	C 	0.3015	0.02349	0.21468	-0.071
Mof_H 	H 	0.3136	0.0392	0.2126	0.055
Mof_C 	C 	0.28012	0.02236	0.23653	-0.022
Mof_H 	H 	0.2788	0.0373	0.2498	0.031
Mof_C 	C 	0.3015	0.52349	0.71468	-0.071
Mof_H 	H 	0.3136	0.5392	0.7126	0.055
Mof_C 	C 	0.28012	0.52236	0.73653	-0.022
Mof_H 	H 	0.2788	0.5373	0.7498	0.031
Mof_C 	C 	0.8015	0.02349	0.71468	-0.071
Mof_H 	H 	0.8136	0.0392	0.7126	0.055
Mof_C 	C 	0.78012	0.02236	0.73653	-0.022
Mof_H 	H 	0.7788	0.0373	0.7498	0.031
Mof_C 	C 	0.8015	0.52349	0.21468	-0.072
Mof_H 	H 	0.8136	0.5392	0.2126	0.055
Mof_C 	C 	0.78012	0.52236	0.23653	-0.022
Mof_H 	H 	0.7788	0.5373	0.2498	0.031
Mof_C 	C 	0.6985	0.97651	0.21468	-0.07
Mof_H 	H 	0.6864	0.9608	0.2126	0.055
Mof_C 	C 	0.71988	0.97764	0.23653	-0.021
Mof_H 	H 	0.7212	0.9627	0.2498	0.031
Mof_C 	C 	0.6985	0.47651	0.71468	-0.071
Mof_H 	H 	0.6864	0.4608	0.7126	0.055
Mof_C 	C 	0.71988	0.47764	0.73653	-0.022
Mof_H 	H 	0.7212	0.4627	0.7498	0.031
Mof_C 	C 	0.1985	0.97651	0.71468	-0.07
Mof_H 	H 	0.1864	0.9608	0.7126	0.055
Mof_C 	C 	0.21988	0.97764	0.73653	-0.021
Mof_H 	H 	0.2212	0.9627	0.7498	0.031
Mof_C 	C 	0.1985	0.47651	0.21468	-0.071
Mof_H 	H 	0.1864	0.4608	0.2126	0.055
Mof_C 	C 	0.21988	0.47764	0.23653	-0.022
Mof_H 	H 	0.2212	0.4627	0.2498	0.031
Mof_C 	C 	0.78532	0.6985	0.02349	-0.071
Mof_H 	H 	0.7874	0.6864	0.0392	0.055
Mof_C 	C 	0.76347	0.71988	0.02236	-0.022
Mof_H 	H 	0.7502	0.7212	0.0373	0.031
Mof_C 	C 	0.78532	0.1985	0.52349	-0.071
Mof_H 	H 	0.7874	0.1864	0.5392	0.055
Mof_C 	C 	0.76347	0.21988	0.52236	-0.022
Mof_H 	H 	0.7502	0.2212	0.5373	0.031
Mof_C 	C 	0.28532	0.6985	0.52349	-0.071
Mof_H 	H 	0.2874	0.6864	0.5392	0.055
Mof_C 	C 	0.26347	0.71988	0.52236	-0.022
Mof_H 	H 	0.2502	0.7212	0.5373	0.031
Mof_C 	C 	0.28532	0.1985	0.02349	-0.071
Mof_H 	H 	0.2874	0.1864	0.0392	0.055
Mof_C 	C 	0.26347	0.21988	0.02236	-0.022
Mof_H 	H 	0.2502	0.2212	0.0373	0.031
Mof_C 	C 	0.78532	0.3015	0.97651	-0.07
Mof_H 	H 	0.7874	0.3136	0.9608	0.055
Mof_C 	C 	0.76347	0.28012	0.97764	-0.021
Mof_H 	H 	0.7502	0.2788	0.9627	0.031
Mof_C 	C 	0.78532	0.8015	0.47651	-0.071
Mof_H 	H 	0.7874	0.8136	0.4608	0.055
Mof_C 	C 	0.76347	0.78012	0.47764	-0.022
Mof_H 	H 	0.7502	0.7788	0.4627	0.031
Mof_C 	C 	0.28532	0.3015	0.47651	-0.071
Mof_H 	H 	0.2874	0.3136	0.4608	0.055
Mof_C 	C 	0.26347	0.28012	0.47764	-0.022
Mof_H 	H 	0.2502	0.2788	0.4627	0.031
Mof_C 	C 	0.28532	0.8015	0.97651	-0.07
Mof_H 	H 	0.2874	0.8136	0.9608	0.055
Mof_C 	C 	0.26347	0.78012	0.97764	-0.021
Mof_H 	H 	0.2502	0.7788	0.9627	0.031
Mof_C 	C 	0.21468	0.3015	0.02349	-0.071
Mof_H 	H 	0.2126	0.3136	0.0392	0.055
Mof_C 	C 	0.23653	0.28012	0.02236	-0.022
Mof_H 	H 	0.2498	0.2788	0.0373	0.031
Mof_C 	C 	0.21468	0.8015	0.52349	-0.071
Mof_H 	H 	0.2126	0.8136	0.5392	0.055
Mof_C 	C 	0.23653	0.78012	0.52236	-0.022
Mof_H 	H 	0.2498	0.7788	0.5373	0.031
Mof_C 	C 	0.71468	0.3015	0.52349	-0.072
Mof_H 	H 	0.7126	0.3136	0.5392	0.055
Mof_C 	C 	0.73653	0.28012	0.52236	-0.022
Mof_H 	H 	0.7498	0.2788	0.5373	0.031
Mof_C 	C 	0.71468	0.8015	0.02349	-0.071
Mof_H 	H 	0.7126	0.8136	0.0392	0.055
Mof_C 	C 	0.73653	0.78012	0.02236	-0.022
Mof_H 	H 	0.7498	0.7788	0.0373	0.031
Mof_C 	C 	0.21468	0.6985	0.97651	-0.07
Mof_H 	H 	0.2126	0.6864	0.9608	0.055
Mof_C 	C 	0.23653	0.71988	0.97764	-0.021
Mof_H 	H 	0.2498	0.7212	0.9627	0.031
Mof_C 	C 	0.21468	0.1985	0.47651	-0.071
Mof_H 	H 	0.2126	0.1864	0.4608	0.055
Mof_C 	C 	0.23653	0.21988	0.47764	-0.022
Mof_H 	H 	0.2498	0.2212	0.4627	0.031
Mof_C 	C 	0.71468	0.6985	0.47651	-0.071
Mof_H 	H 	0.7126	0.6864	0.4608	0.055
Mof_C 	C 	0.73653	0.71988	0.47764	-0.022
Mof_H 	H 	0.7498	0.7212	0.4627	0.031
Mof_C 	C 	0.71468	0.1985	0.97651	-0.07
Mof_H 	H 	0.7126	0.1864	0.9608	0.055
Mof_C 	C 	0.73653	0.21988	0.97764	-0.021
Mof_H 	H 	0.7498	0.2212	0.9627	0.031
Mof_C 	C 	0.02349	0.78532	0.6985	-0.071
Mof_H 	H 	0.0392	0.7874	0.6864	0.055
Mof_C 	C 	0.02236	0.76347	0.71988	-0.022
Mof_H 	H 	0.0373	0.7502	0.7212	0.031
Mof_C 	C 	0.02349	0.28532	0.1985	-0.071
Mof_H 	H 	0.0392	0.2874	0.1864	0.055
Mof_C 	C 	0.02236	0.26347	0.21988	-0.022
Mof_H 	H 	0.0373	0.2502	0.2212	0.031
Mof_C 	C 	0.52349	0.78532	0.1985	-0.071
Mof_H 	H 	0.5392	0.7874	0.1864	0.055
Mof_C 	C 	0.52236	0.76347	0.21988	-0.022
Mof_H 	H 	0.5373	0.7502	0.2212	0.031
Mof_C 	C 	0.52349	0.28532	0.6985	-0.071
Mof_H 	H 	0.5392	0.2874	0.6864	0.055
Mof_C 	C 	0.52236	0.26347	0.71988	-0.022
Mof_H 	H 	0.5373	0.2502	0.7212	0.031
Mof_C 	C 	0.97651	0.78532	0.3015	-0.07
Mof_H 	H 	0.9608	0.7874	0.3136	0.055
Mof_C 	C 	0.97764	0.76347	0.28012	-0.021
Mof_H 	H 	0.9627	0.7502	0.2788	0.031
Mof_C 	C 	0.97651	0.28532	0.8015	-0.07
Mof_H 	H 	0.9608	0.2874	0.8136	0.055
Mof_C 	C 	0.97764	0.26347	0.78012	-0.021
Mof_H 	H 	0.9627	0.2502	0.7788	0.031
Mof_C 	C 	0.47651	0.78532	0.8015	-0.071
Mof_H 	H 	0.4608	0.7874	0.8136	0.055
Mof_C 	C 	0.47764	0.76347	0.78012	-0.022
Mof_H 	H 	0.4627	0.7502	0.7788	0.031
Mof_C 	C 	0.47651	0.28532	0.3015	-0.071
Mof_H 	H 	0.4608	0.2874	0.3136	0.055
Mof_C 	C 	0.47764	0.26347	0.28012	-0.022
Mof_H 	H 	0.4627	0.2502	0.2788	0.031
Mof_C 	C 	0.02349	0.21468	0.3015	-0.071
Mof_H 	H 	0.0392	0.2126	0.3136	0.055
Mof_C 	C 	0.02236	0.23653	0.28012	-0.022
Mof_H 	H 	0.0373	0.2498	0.2788	0.031
Mof_C 	C 	0.02349	0.71468	0.8015	-0.071
Mof_H 	H 	0.0392	0.7126	0.8136	0.055
Mof_C 	C 	0.02236	0.73653	0.78012	-0.022
Mof_H 	H 	0.0373	0.7498	0.7788	0.031
Mof_C 	C 	0.52349	0.21468	0.8015	-0.071
Mof_H 	H 	0.5392	0.2126	0.8136	0.055
Mof_C 	C 	0.52236	0.23653	0.78012	-0.022
Mof_H 	H 	0.5373	0.2498	0.7788	0.031
Mof_C 	C 	0.52349	0.71468	0.3015	-0.072
Mof_H 	H 	0.5392	0.7126	0.3136	0.055
Mof_C 	C 	0.52236	0.73653	0.28012	-0.022
Mof_H 	H 	0.5373	0.7498	0.2788	0.031
Mof_C 	C 	0.97651	0.21468	0.6985	-0.07
Mof_H 	H 	0.9608	0.2126	0.6864	0.055
Mof_C 	C 	0.97764	0.23653	0.71988	-0.021
Mof_H 	H 	0.9627	0.2498	0.7212	0.031
Mof_C 	C 	0.97651	0.71468	0.1985	-0.07
Mof_H 	H 	0.9608	0.7126	0.1864	0.055
Mof_C 	C 	0.97764	0.73653	0.21988	-0.021
Mof_H 	H 	0.9627	0.7498	0.2212	0.031
Mof_C 	C 	0.47651	0.21468	0.1985	-0.071
Mof_H 	H 	0.4608	0.2126	0.1864	0.055
Mof_C 	C 	0.47764	0.23653	0.21988	-0.022
Mof_H 	H 	0.4627	0.2498	0.2212	0.031
Mof_C 	C 	0.47651	0.71468	0.6985	-0.071
Mof_H 	H 	0.4608	0.7126	0.6864	0.055
Mof_C 	C 	0.47764	0.73653	0.71988	-0.022
Mof_H 	H 	0.4627	0.7498	0.7212	0.031
Mof_C 	C 	0.02349	0.6985	0.21468	-0.071
Mof_H 	H 	0.0392	0.6864	0.2126	0.055
Mof_C 	C 	0.02236	0.71988	0.23653	-0.022
Mof_H 	H 	0.0373	0.7212	0.2498	0.031
Mof_C 	C 	0.02349	0.1985	0.71468	-0.071
Mof_H 	H 	0.0392	0.1864	0.7126	0.055
Mof_C 	C 	0.02236	0.21988	0.73653	-0.022
Mof_H 	H 	0.0373	0.2212	0.7498	0.031
Mof_C 	C 	0.52349	0.6985	0.71468	-0.071
Mof_H 	H 	0.5392	0.6864	0.7126	0.055
Mof_C 	C 	0.52236	0.71988	0.73653	-0.022
Mof_H 	H 	0.5373	0.7212	0.7498	0.031
Mof_C 	C 	0.52349	0.1985	0.21468	-0.071
Mof_H 	H 	0.5392	0.1864	0.2126	0.055
Mof_C 	C 	0.52236	0.21988	0.23653	-0.022
Mof_H 	H 	0.5373	0.2212	0.2498	0.031
Mof_C 	C 	0.97651	0.3015	0.21468	-0.07
Mof_H 	H 	0.9608	0.3136	0.2126	0.055
Mof_C 	C 	0.97764	0.28012	0.23653	-0.021
Mof_H 	H 	0.9627	0.2788	0.2498	0.031
Mof_C 	C 	0.97651	0.8015	0.71468	-0.071
Mof_H 	H 	0.9608	0.8136	0.7126	0.055
Mof_C 	C 	0.97764	0.78012	0.73653	-0.021
Mof_H 	H 	0.9627	0.7788	0.7498	0.031
Mof_C 	C 	0.47651	0.3015	0.71468	-0.071
Mof_H 	H 	0.4608	0.3136	0.7126	0.055
Mof_C 	C 	0.47764	0.28012	0.73653	-0.022
Mof_H 	H 	0.4627	0.2788	0.7498	0.031
Mof_C 	C 	0.47651	0.8015	0.21468	-0.072
Mof_H 	H 	0.4608	0.8136	0.2126	0.055
Mof_C 	C 	0.47764	0.78012	0.23653	-0.022
Mof_H 	H 	0.4627	0.7788	0.2498	0.031
Mof_C 	C 	0.02349	0.3015	0.78532	-0.071
Mof_H 	H 	0.0392	0.3136	0.7874	0.055
Mof_C 	C 	0.02236	0.28012	0.76347	-0.022
Mof_H 	H 	0.0373	0.2788	0.7502	0.031
Mof_C 	C 	0.02349	0.8015	0.28532	-0.071
Mof_H 	H 	0.0392	0.8136	0.2874	0.055
Mof_C 	C 	0.02236	0.78012	0.26347	-0.022
Mof_H 	H 	0.0373	0.7788	0.2502	0.031
Mof_C 	C 	0.52349	0.3015	0.28532	-0.071
Mof_H 	H 	0.5392	0.3136	0.2874	0.055
Mof_C 	C 	0.52236	0.28012	0.26347	-0.022
Mof_H 	H 	0.5373	0.2788	0.2502	0.031
Mof_C 	C 	0.52349	0.8015	0.78532	-0.071
Mof_H 	H 	0.5392	0.8136	0.7874	0.055
Mof_C 	C 	0.52236	0.78012	0.76347	-0.022
Mof_H 	H 	0.5373	0.7788	0.7502	0.031
Mof_C 	C 	0.97651	0.6985	0.78532	-0.07
Mof_H 	H 	0.9608	0.6864	0.7874	0.055
Mof_C 	C 	0.97764	0.71988	0.76347	-0.021
Mof_H 	H 	0.9627	0.7212	0.7502	0.031
Mof_C 	C 	0.97651	0.1985	0.28532	-0.07
Mof_H 	H 	0.9608	0.1864	0.2874	0.055
Mof_C 	C 	0.97764	0.21988	0.26347	-0.021
Mof_H 	H 	0.9627	0.2212	0.2502	0.031
Mof_C 	C 	0.47651	0.6985	0.28532	-0.071
Mof_H 	H 	0.4608	0.6864	0.2874	0.055
Mof_C 	C 	0.47764	0.71988	0.26347	-0.022
Mof_H 	H 	0.4627	0.7212	0.2502	0.031
Mof_C 	C 	0.47651	0.1985	0.78532	-0.071
Mof_H 	H 	0.4608	0.1864	0.7874	0.055
Mof_C 	C 	0.47764	0.21988	0.76347	-0.022
Mof_H 	H 	0.4627	0.2212	0.7502	0.031
Mof_C 	C 	0.6985	0.78532	0.97651	-0.07
Mof_H 	H 	0.6864	0.7874	0.9608	0.055
Mof_C 	C 	0.71988	0.76347	0.97764	-0.021
Mof_H 	H 	0.7212	0.7502	0.9627	0.031
Mof_C 	C 	0.6985	0.28532	0.47651	-0.071
Mof_H 	H 	0.6864	0.2874	0.4608	0.055
Mof_C 	C 	0.71988	0.26347	0.47764	-0.022
Mof_H 	H 	0.7212	0.2502	0.4627	0.031
Mof_C 	C 	0.1985	0.78532	0.47651	-0.071
Mof_H 	H 	0.1864	0.7874	0.4608	0.055
Mof_C 	C 	0.21988	0.76347	0.47764	-0.022
Mof_H 	H 	0.2212	0.7502	0.4627	0.031
Mof_C 	C 	0.1985	0.28532	0.97651	-0.07
Mof_H 	H 	0.1864	0.2874	0.9608	0.055
Mof_C 	C 	0.21988	0.26347	0.97764	-0.021
Mof_H 	H 	0.2212	0.2502	0.9627	0.031
Mof_C 	C 	0.3015	0.78532	0.02349	-0.071
Mof_H 	H 	0.3136	0.7874	0.0392	0.055
Mof_C 	C 	0.28012	0.76347	0.02236	-0.022
Mof_H 	H 	0.2788	0.7502	0.0373	0.031
Mof_C 	C 	0.3015	0.28532	0.52349	-0.071
Mof_H 	H 	0.3136	0.2874	0.5392	0.055
Mof_C 	C 	0.28012	0.26347	0.52236	-0.022
Mof_H 	H 	0.2788	0.2502	0.5373	0.031
Mof_C 	C 	0.8015	0.78532	0.52349	-0.071
Mof_H 	H 	0.8136	0.7874	0.5392	0.055
Mof_C 	C 	0.78012	0.76347	0.52236	-0.022
Mof_H 	H 	0.7788	0.7502	0.5373	0.031
Mof_C 	C 	0.8015	0.28532	0.02349	-0.071
Mof_H 	H 	0.8136	0.2874	0.0392	0.055
Mof_C 	C 	0.78012	0.26347	0.02236	-0.022
Mof_H 	H 	0.7788	0.2502	0.0373	0.031
Mof_C 	C 	0.3015	0.21468	0.97651	-0.07
Mof_H 	H 	0.3136	0.2126	0.9608	0.055
Mof_C 	C 	0.28012	0.23653	0.97764	-0.021
Mof_H 	H 	0.2788	0.2498	0.9627	0.031
Mof_C 	C 	0.3015	0.71468	0.47651	-0.071
Mof_H 	H 	0.3136	0.7126	0.4608	0.055
Mof_C 	C 	0.28012	0.73653	0.47764	-0.022
Mof_H 	H 	0.2788	0.7498	0.4627	0.031
Mof_C 	C 	0.8015	0.21468	0.47651	-0.072
Mof_H 	H 	0.8136	0.2126	0.4608	0.055
Mof_C 	C 	0.78012	0.23653	0.47764	-0.022
Mof_H 	H 	0.7788	0.2498	0.4627	0.031
Mof_C 	C 	0.8015	0.71468	0.97651	-0.071
Mof_H 	H 	0.8136	0.7126	0.9608	0.055
Mof_C 	C 	0.78012	0.73653	0.97764	-0.021
Mof_H 	H 	0.7788	0.7498	0.9627	0.031
Mof_C 	C 	0.6985	0.21468	0.02349	-0.071
Mof_H 	H 	0.6864	0.2126	0.0392	0.055
Mof_C 	C 	0.71988	0.23653	0.02236	-0.022
Mof_H 	H 	0.7212	0.2498	0.0373	0.031
Mof_C 	C 	0.6985	0.71468	0.52349	-0.071
Mof_H 	H 	0.6864	0.7126	0.5392	0.055
Mof_C 	C 	0.71988	0.73653	0.52236	-0.022
Mof_H 	H 	0.7212	0.7498	0.5373	0.031
Mof_C 	C 	0.1985	0.21468	0.52349	-0.071
Mof_H 	H 	0.1864	0.2126	0.5392	0.055
Mof_C 	C 	0.21988	0.23653	0.52236	-0.022
Mof_H 	H 	0.2212	0.2498	0.5373	0.031
Mof_C 	C 	0.1985	0.71468	0.02349	-0.071
Mof_H 	H 	0.1864	0.7126	0.0392	0.055
Mof_C 	C 	0.21988	0.73653	0.02236	-0.022
Mof_H 	H 	0.2212	0.7498	0.0373	0.031
Mof_C 	C 	0.78532	0.02349	0.3015	-0.071
Mof_H 	H 	0.7874	0.0392	0.3136	0.055
Mof_C 	C 	0.76347	0.02236	0.28012	-0.022
Mof_H 	H 	0.7502	0.0373	0.2788	0.031
Mof_C 	C 	0.78532	0.52349	0.8015	-0.071
Mof_H 	H 	0.7874	0.5392	0.8136	0.055
Mof_C 	C 	0.76347	0.52236	0.78012	-0.022
Mof_H 	H 	0.7502	0.5373	0.7788	0.031
Mof_C 	C 	0.28532	0.02349	0.8015	-0.071
Mof_H 	H 	0.2874	0.0392	0.8136	0.055
Mof_C 	C 	0.26347	0.02236	0.78012	-0.022
Mof_H 	H 	0.2502	0.0373	0.7788	0.031
Mof_C 	C 	0.28532	0.52349	0.3015	-0.071
Mof_H 	H 	0.2874	0.5392	0.3136	0.055
Mof_C 	C 	0.26347	0.52236	0.28012	-0.022
Mof_H 	H 	0.2502	0.5373	0.2788	0.031
Mof_C 	C 	0.78532	0.97651	0.6985	-0.07
Mof_H 	H 	0.7874	0.9608	0.6864	0.055
Mof_C 	C 	0.76347	0.97764	0.71988	-0.021
Mof_H 	H 	0.7502	0.9627	0.7212	0.031
Mof_C 	C 	0.78532	0.47651	0.1985	-0.071
Mof_H 	H 	0.7874	0.4608	0.1864	0.055
Mof_C 	C 	0.76347	0.47764	0.21988	-0.022
Mof_H 	H 	0.7502	0.4627	0.2212	0.031
Mof_C 	C 	0.28532	0.97651	0.1985	-0.07
Mof_H 	H 	0.2874	0.9608	0.1864	0.055
Mof_C 	C 	0.26347	0.97764	0.21988	-0.021
Mof_H 	H 	0.2502	0.9627	0.2212	0.031
Mof_C 	C 	0.28532	0.47651	0.6985	-0.071
Mof_H 	H 	0.2874	0.4608	0.6864	0.055
Mof_C 	C 	0.26347	0.47764	0.71988	-0.022
Mof_H 	H 	0.2502	0.4627	0.7212	0.031
Mof_C 	C 	0.21468	0.02349	0.6985	-0.071
Mof_H 	H 	0.2126	0.0392	0.6864	0.055
Mof_C 	C 	0.23653	0.02236	0.71988	-0.022
Mof_H 	H 	0.2498	0.0373	0.7212	0.031
Mof_C 	C 	0.21468	0.52349	0.1985	-0.071
Mof_H 	H 	0.2126	0.5392	0.1864	0.055
Mof_C 	C 	0.23653	0.52236	0.21988	-0.022
Mof_H 	H 	0.2498	0.5373	0.2212	0.031
Mof_C 	C 	0.71468	0.02349	0.1985	-0.071
Mof_H 	H 	0.7126	0.0392	0.1864	0.055
Mof_C 	C 	0.73653	0.02236	0.21988	-0.022
Mof_H 	H 	0.7498	0.0373	0.2212	0.031
Mof_C 	C 	0.71468	0.52349	0.6985	-0.071
Mof_H 	H 	0.7126	0.5392	0.6864	0.055
Mof_C 	C 	0.73653	0.52236	0.71988	-0.022
Mof_H 	H 	0.7498	0.5373	0.7212	0.031
Mof_C 	C 	0.21468	0.97651	0.3015	-0.07
Mof_H 	H 	0.2126	0.9608	0.3136	0.055
Mof_C 	C 	0.23653	0.97764	0.28012	-0.021
Mof_H 	H 	0.2498	0.9627	0.2788	0.031
Mof_C 	C 	0.21468	0.47651	0.8015	-0.071
Mof_H 	H 	0.2126	0.4608	0.8136	0.055
Mof_C 	C 	0.23653	0.47764	0.78012	-0.022
Mof_H 	H 	0.2498	0.4627	0.7788	0.031
Mof_C 	C 	0.71468	0.97651	0.8015	-0.071
Mof_H 	H 	0.7126	0.9608	0.8136	0.055
Mof_C 	C 	0.73653	0.97764	0.78012	-0.021
Mof_H 	H 	0.7498	0.9627	0.7788	0.031
Mof_C 	C 	0.71468	0.47651	0.3015	-0.072
Mof_H 	H 	0.7126	0.4608	0.3136	0.055
Mof_C 	C 	0.73653	0.47764	0.28012	-0.022
Mof_H 	H 	0.7498	0.4627	0.2788	0.031
Mof_C 	C 	0.3015	0.97651	0.21468	-0.07
Mof_H 	H 	0.3136	0.9608	0.2126	0.055
Mof_C 	C 	0.28012	0.97764	0.23653	-0.021
Mof_H 	H 	0.2788	0.9627	0.2498	0.031
Mof_C 	C 	0.3015	0.47651	0.71468	-0.071
Mof_H 	H 	0.3136	0.4608	0.7126	0.055
Mof_C 	C 	0.28012	0.47764	0.73653	-0.022
Mof_H 	H 	0.2788	0.4627	0.7498	0.031
Mof_C 	C 	0.8015	0.97651	0.71468	-0.071
Mof_H 	H 	0.8136	0.9608	0.7126	0.055
Mof_C 	C 	0.78012	0.97764	0.73653	-0.021
Mof_H 	H 	0.7788	0.9627	0.7498	0.031
Mof_C 	C 	0.8015	0.47651	0.21468	-0.072
Mof_H 	H 	0.8136	0.4608	0.2126	0.055
Mof_C 	C 	0.78012	0.47764	0.23653	-0.022
Mof_H 	H 	0.7788	0.4627	0.2498	0.031
Mof_C 	C 	0.6985	0.02349	0.21468	-0.071
Mof_H 	H 	0.6864	0.0392	0.2126	0.055
Mof_C 	C 	0.71988	0.02236	0.23653	-0.022
Mof_H 	H 	0.7212	0.0373	0.2498	0.031
Mof_C 	C 	0.6985	0.52349	0.71468	-0.071
Mof_H 	H 	0.6864	0.5392	0.7126	0.055
Mof_C 	C 	0.71988	0.52236	0.73653	-0.022
Mof_H 	H 	0.7212	0.5373	0.7498	0.031
Mof_C 	C 	0.1985	0.02349	0.71468	-0.071
Mof_H 	H 	0.1864	0.0392	0.7126	0.055
Mof_C 	C 	0.21988	0.02236	0.73653	-0.022
Mof_H 	H 	0.2212	0.0373	0.7498	0.031
Mof_C 	C 	0.1985	0.52349	0.21468	-0.071
Mof_H 	H 	0.1864	0.5392	0.2126	0.055
Mof_C 	C 	0.21988	0.52236	0.23653	-0.022
Mof_H 	H 	0.2212	0.5373	0.2498	0.031
Mof_C 	C 	0.6985	0.97651	0.78532	-0.07
Mof_H 	H 	0.6864	0.9608	0.7874	0.055
Mof_C 	C 	0.71988	0.97764	0.76347	-0.021
Mof_H 	H 	0.7212	0.9627	0.7502	0.031
Mof_C 	C 	0.6985	0.47651	0.28532	-0.071
Mof_H 	H 	0.6864	0.4608	0.2874	0.055
Mof_C 	C 	0.71988	0.47764	0.26347	-0.022
Mof_H 	H 	0.7212	0.4627	0.2502	0.031
Mof_C 	C 	0.1985	0.97651	0.28532	-0.07
Mof_H 	H 	0.1864	0.9608	0.2874	0.055
Mof_C 	C 	0.21988	0.97764	0.26347	-0.021
Mof_H 	H 	0.2212	0.9627	0.2502	0.031
Mof_C 	C 	0.1985	0.47651	0.78532	-0.071
Mof_H 	H 	0.1864	0.4608	0.7874	0.055
Mof_C 	C 	0.21988	0.47764	0.76347	-0.022
Mof_H 	H 	0.2212	0.4627	0.7502	0.031
Mof_C 	C 	0.3015	0.02349	0.78532	-0.071
Mof_H 	H 	0.3136	0.0392	0.7874	0.055
Mof_C 	C 	0.28012	0.02236	0.76347	-0.022
Mof_H 	H 	0.2788	0.0373	0.7502	0.031
Mof_C 	C 	0.3015	0.52349	0.28532	-0.071
Mof_H 	H 	0.3136	0.5392	0.2874	0.055
Mof_C 	C 	0.28012	0.52236	0.26347	-0.022
Mof_H 	H 	0.2788	0.5373	0.2502	0.031
Mof_C 	C 	0.8015	0.02349	0.28532	-0.071
Mof_H 	H 	0.8136	0.0392	0.2874	0.055
Mof_C 	C 	0.78012	0.02236	0.26347	-0.022
Mof_H 	H 	0.7788	0.0373	0.2502	0.031
Mof_C 	C 	0.8015	0.52349	0.78532	-0.071
Mof_H 	H 	0.8136	0.5392	0.7874	0.055
Mof_C 	C 	0.78012	0.52236	0.76347	-0.022
Mof_H 	H 	0.7788	0.5373	0.7502	0.031
Mof_C 	C 	0.21468	0.3015	0.97651	-0.07
Mof_H 	H 	0.2126	0.3136	0.9608	0.055
Mof_C 	C 	0.23653	0.28012	0.97764	-0.021
Mof_H 	H 	0.2498	0.2788	0.9627	0.031
Mof_C 	C 	0.21468	0.8015	0.47651	-0.071
Mof_H 	H 	0.2126	0.8136	0.4608	0.055
Mof_C 	C 	0.23653	0.78012	0.47764	-0.022
Mof_H 	H 	0.2498	0.7788	0.4627	0.031
Mof_C 	C 	0.71468	0.3015	0.47651	-0.072
Mof_H 	H 	0.7126	0.3136	0.4608	0.055
Mof_C 	C 	0.73653	0.28012	0.47764	-0.022
Mof_H 	H 	0.7498	0.2788	0.4627	0.031
Mof_C 	C 	0.71468	0.8015	0.97651	-0.071
Mof_H 	H 	0.7126	0.8136	0.9608	0.055
Mof_C 	C 	0.73653	0.78012	0.97764	-0.021
Mof_H 	H 	0.7498	0.7788	0.9627	0.031
Mof_C 	C 	0.21468	0.6985	0.02349	-0.071
Mof_H 	H 	0.2126	0.6864	0.0392	0.055
Mof_C 	C 	0.23653	0.71988	0.02236	-0.022
Mof_H 	H 	0.2498	0.7212	0.0373	0.031
Mof_C 	C 	0.21468	0.1985	0.52349	-0.071
Mof_H 	H 	0.2126	0.1864	0.5392	0.055
Mof_C 	C 	0.23653	0.21988	0.52236	-0.022
Mof_H 	H 	0.2498	0.2212	0.5373	0.031
Mof_C 	C 	0.71468	0.6985	0.52349	-0.071
Mof_H 	H 	0.7126	0.6864	0.5392	0.055
Mof_C 	C 	0.73653	0.71988	0.52236	-0.022
Mof_H 	H 	0.7498	0.7212	0.5373	0.031
Mof_C 	C 	0.71468	0.1985	0.02349	-0.071
Mof_H 	H 	0.7126	0.1864	0.0392	0.055
Mof_C 	C 	0.73653	0.21988	0.02236	-0.022
Mof_H 	H 	0.7498	0.2212	0.0373	0.031
Mof_C 	C 	0.78532	0.6985	0.97651	-0.07
Mof_H 	H 	0.7874	0.6864	0.9608	0.055
Mof_C 	C 	0.76347	0.71988	0.97764	-0.021
Mof_H 	H 	0.7502	0.7212	0.9627	0.031
Mof_C 	C 	0.78532	0.1985	0.47651	-0.071
Mof_H 	H 	0.7874	0.1864	0.4608	0.055
Mof_C 	C 	0.76347	0.21988	0.47764	-0.022
Mof_H 	H 	0.7502	0.2212	0.4627	0.031
Mof_C 	C 	0.28532	0.6985	0.47651	-0.071
Mof_H 	H 	0.2874	0.6864	0.4608	0.055
Mof_C 	C 	0.26347	0.71988	0.47764	-0.022
Mof_H 	H 	0.2502	0.7212	0.4627	0.031
Mof_C 	C 	0.28532	0.1985	0.97651	-0.07
Mof_H 	H 	0.2874	0.1864	0.9608	0.055
Mof_C 	C 	0.26347	0.21988	0.97764	-0.021
Mof_H 	H 	0.2502	0.2212	0.9627	0.031
Mof_C 	C 	0.78532	0.3015	0.02349	-0.071
Mof_H 	H 	0.7874	0.3136	0.0392	0.055
Mof_C 	C 	0.76347	0.28012	0.02236	-0.022
Mof_H 	H 	0.7502	0.2788	0.0373	0.031
Mof_C 	C 	0.78532	0.8015	0.52349	-0.071
Mof_H 	H 	0.7874	0.8136	0.5392	0.055
Mof_C 	C 	0.76347	0.78012	0.52236	-0.022
Mof_H 	H 	0.7502	0.7788	0.5373	0.031
Mof_C 	C 	0.28532	0.3015	0.52349	-0.071
Mof_H 	H 	0.2874	0.3136	0.5392	0.055
Mof_C 	C 	0.26347	0.28012	0.52236	-0.022
Mof_H 	H 	0.2502	0.2788	0.5373	0.031
Mof_C 	C 	0.28532	0.8015	0.02349	-0.071
Mof_H 	H 	0.2874	0.8136	0.0392	0.055
Mof_C 	C 	0.26347	0.78012	0.02236	-0.022
Mof_H 	H 	0.2502	0.7788	0.0373	0.031
Mof_C 	C 	0.97651	0.21468	0.3015	-0.07
Mof_H 	H 	0.9608	0.2126	0.3136	0.055
Mof_C 	C 	0.97764	0.23653	0.28012	-0.021
Mof_H 	H 	0.9627	0.2498	0.2788	0.031
Mof_C 	C 	0.97651	0.71468	0.8015	-0.071
Mof_H 	H 	0.9608	0.7126	0.8136	0.055
Mof_C 	C 	0.97764	0.73653	0.78012	-0.021
Mof_H 	H 	0.9627	0.7498	0.7788	0.031
Mof_C 	C 	0.47651	0.21468	0.8015	-0.071
Mof_H 	H 	0.4608	0.2126	0.8136	0.055
Mof_C 	C 	0.47764	0.23653	0.78012	-0.022
Mof_H 	H 	0.4627	0.2498	0.7788	0.031
Mof_C 	C 	0.47651	0.71468	0.3015	-0.072
Mof_H 	H 	0.4608	0.7126	0.3136	0.055
Mof_C 	C 	0.47764	0.73653	0.28012	-0.022
Mof_H 	H 	0.4627	0.7498	0.2788	0.031
Mof_C 	C 	0.02349	0.21468	0.6985	-0.071
Mof_H 	H 	0.0392	0.2126	0.6864	0.055
Mof_C 	C 	0.02236	0.23653	0.71988	-0.022
Mof_H 	H 	0.0373	0.2498	0.7212	0.031
Mof_C 	C 	0.02349	0.71468	0.1985	-0.071
Mof_H 	H 	0.0392	0.7126	0.1864	0.055
Mof_C 	C 	0.02236	0.73653	0.21988	-0.022
Mof_H 	H 	0.0373	0.7498	0.2212	0.031
Mof_C 	C 	0.52349	0.21468	0.1985	-0.071
Mof_H 	H 	0.5392	0.2126	0.1864	0.055
Mof_C 	C 	0.52236	0.23653	0.21988	-0.022
Mof_H 	H 	0.5373	0.2498	0.2212	0.031
Mof_C 	C 	0.52349	0.71468	0.6985	-0.071
Mof_H 	H 	0.5392	0.7126	0.6864	0.055
Mof_C 	C 	0.52236	0.73653	0.71988	-0.022
Mof_H 	H 	0.5373	0.7498	0.7212	0.031
Mof_C 	C 	0.97651	0.78532	0.6985	-0.07
Mof_H 	H 	0.9608	0.7874	0.6864	0.055
Mof_C 	C 	0.97764	0.76347	0.71988	-0.021
Mof_H 	H 	0.9627	0.7502	0.7212	0.031
Mof_C 	C 	0.97651	0.28532	0.1985	-0.07
Mof_H 	H 	0.9608	0.2874	0.1864	0.055
Mof_C 	C 	0.97764	0.26347	0.21988	-0.021
Mof_H 	H 	0.9627	0.2502	0.2212	0.031
Mof_C 	C 	0.47651	0.78532	0.1985	-0.071
Mof_H 	H 	0.4608	0.7874	0.1864	0.055
Mof_C 	C 	0.47764	0.76347	0.21988	-0.022
Mof_H 	H 	0.4627	0.7502	0.2212	0.031
Mof_C 	C 	0.47651	0.28532	0.6985	-0.071
Mof_H 	H 	0.4608	0.2874	0.6864	0.055
Mof_C 	C 	0.47764	0.26347	0.71988	-0.022
Mof_H 	H 	0.4627	0.2502	0.7212	0.031
Mof_C 	C 	0.02349	0.78532	0.3015	-0.071
Mof_H 	H 	0.0392	0.7874	0.3136	0.055
Mof_C 	C 	0.02236	0.76347	0.28012	-0.022
Mof_H 	H 	0.0373	0.7502	0.2788	0.031
Mof_C 	C 	0.02349	0.28532	0.8015	-0.071
Mof_H 	H 	0.0392	0.2874	0.8136	0.055
Mof_C 	C 	0.02236	0.26347	0.78012	-0.022
Mof_H 	H 	0.0373	0.2502	0.7788	0.031
Mof_C 	C 	0.52349	0.78532	0.8015	-0.071
Mof_H 	H 	0.5392	0.7874	0.8136	0.055
Mof_C 	C 	0.52236	0.76347	0.78012	-0.022
Mof_H 	H 	0.5373	0.7502	0.7788	0.031
Mof_C 	C 	0.52349	0.28532	0.3015	-0.071
Mof_H 	H 	0.5392	0.2874	0.3136	0.055
Mof_C 	C 	0.52236	0.26347	0.28012	-0.022
Mof_H 	H 	0.5373	0.2502	0.2788	0.031
Mof_C 	C 	0.97651	0.3015	0.78532	-0.07
Mof_H 	H 	0.9608	0.3136	0.7874	0.055
Mof_C 	C 	0.97764	0.28012	0.76347	-0.021
Mof_H 	H 	0.9627	0.2788	0.7502	0.031
Mof_C 	C 	0.97651	0.8015	0.28532	-0.07
Mof_H 	H 	0.9608	0.8136	0.2874	0.055
Mof_C 	C 	0.97764	0.78012	0.26347	-0.021
Mof_H 	H 	0.9627	0.7788	0.2502	0.031
Mof_C 	C 	0.47651	0.3015	0.28532	-0.071
Mof_H 	H 	0.4608	0.3136	0.2874	0.055
Mof_C 	C 	0.47764	0.28012	0.26347	-0.022
Mof_H 	H 	0.4627	0.2788	0.2502	0.031
Mof_C 	C 	0.47651	0.8015	0.78532	-0.071
Mof_H 	H 	0.4608	0.8136	0.7874	0.055
Mof_C 	C 	0.47764	0.78012	0.76347	-0.022
Mof_H 	H 	0.4627	0.7788	0.7502	0.031
Mof_C 	C 	0.02349	0.6985	0.78532	-0.071
Mof_H 	H 	0.0392	0.6864	0.7874	0.055
Mof_C 	C 	0.02236	0.71988	0.76347	-0.022
Mof_H 	H 	0.0373	0.7212	0.7502	0.031
Mof_C 	C 	0.02349	0.1985	0.28532	-0.071
Mof_H 	H 	0.0392	0.1864	0.2874	0.055
Mof_C 	C 	0.02236	0.21988	0.26347	-0.022
Mof_H 	H 	0.0373	0.2212	0.2502	0.031
Mof_C 	C 	0.52349	0.6985	0.28532	-0.071
Mof_H 	H 	0.5392	0.6864	0.2874	0.055
Mof_C 	C 	0.52236	0.71988	0.26347	-0.022
Mof_H 	H 	0.5373	0.7212	0.2502	0.031
Mof_C 	C 	0.52349	0.1985	0.78532	-0.071
Mof_H 	H 	0.5392	0.1864	0.7874	0.055
Mof_C 	C 	0.52236	0.21988	0.76347	-0.022
Mof_H 	H 	0.5373	0.2212	0.7502	0.031
Mof_C 	C 	0.97651	0.6985	0.21468	-0.07
Mof_H 	H 	0.9608	0.6864	0.2126	0.055
Mof_C 	C 	0.97764	0.71988	0.23653	-0.021
Mof_H 	H 	0.9627	0.7212	0.2498	0.031
Mof_C 	C 	0.97651	0.1985	0.71468	-0.07
Mof_H 	H 	0.9608	0.1864	0.7126	0.055
Mof_C 	C 	0.97764	0.21988	0.73653	-0.021
Mof_H 	H 	0.9627	0.2212	0.7498	0.031
Mof_C 	C 	0.47651	0.6985	0.71468	-0.071
Mof_H 	H 	0.4608	0.6864	0.7126	0.055
Mof_C 	C 	0.47764	0.71988	0.73653	-0.022
Mof_H 	H 	0.4627	0.7212	0.7498	0.031
Mof_C 	C 	0.47651	0.1985	0.21468	-0.071
Mof_H 	H 	0.4608	0.1864	0.2126	0.055
Mof_C 	C 	0.47764	0.21988	0.23653	-0.022
Mof_H 	H 	0.4627	0.2212	0.2498	0.031
Mof_C 	C 	0.02349	0.3015	0.21468	-0.071
Mof_H 	H 	0.0392	0.3136	0.2126	0.055
Mof_C 	C 	0.02236	0.28012	0.23653	-0.022
Mof_H 	H 	0.0373	0.2788	0.2498	0.031
Mof_C 	C 	0.02349	0.8015	0.71468	-0.071
Mof_H 	H 	0.0392	0.8136	0.7126	0.055
Mof_C 	C 	0.02236	0.78012	0.73653	-0.022
Mof_H 	H 	0.0373	0.7788	0.7498	0.031
Mof_C 	C 	0.52349	0.3015	0.71468	-0.071
Mof_H 	H 	0.5392	0.3136	0.7126	0.055
Mof_C 	C 	0.52236	0.28012	0.73653	-0.022
Mof_H 	H 	0.5373	0.2788	0.7498	0.031
Mof_C 	C 	0.52349	0.8015	0.21468	-0.072
Mof_H 	H 	0.5392	0.8136	0.2126	0.055
Mof_C 	C 	0.52236	0.78012	0.23653	-0.022
Mof_H 	H 	0.5373	0.7788	0.2498	0.031
Mof_C 	C 	0.3015	0.21468	0.02349	-0.071
Mof_H 	H 	0.3136	0.2126	0.0392	0.055
Mof_C 	C 	0.28012	0.23653	0.02236	-0.022
Mof_H 	H 	0.2788	0.2498	0.0373	0.031
Mof_C 	C 	0.3015	0.71468	0.52349	-0.071
Mof_H 	H 	0.3136	0.7126	0.5392	0.055
Mof_C 	C 	0.28012	0.73653	0.52236	-0.022
Mof_H 	H 	0.2788	0.7498	0.5373	0.031
Mof_C 	C 	0.8015	0.21468	0.52349	-0.072
Mof_H 	H 	0.8136	0.2126	0.5392	0.055
Mof_C 	C 	0.78012	0.23653	0.52236	-0.022
Mof_H 	H 	0.7788	0.2498	0.5373	0.031
Mof_C 	C 	0.8015	0.71468	0.02349	-0.071
Mof_H 	H 	0.8136	0.7126	0.0392	0.055
Mof_C 	C 	0.78012	0.73653	0.02236	-0.022
Mof_H 	H 	0.7788	0.7498	0.0373	0.031
Mof_C 	C 	0.6985	0.21468	0.97651	-0.07
Mof_H 	H 	0.6864	0.2126	0.9608	0.055
Mof_C 	C 	0.71988	0.23653	0.97764	-0.021
Mof_H 	H 	0.7212	0.2498	0.9627	0.031
Mof_C 	C 	0.6985	0.71468	0.47651	-0.071
Mof_H 	H 	0.6864	0.7126	0.4608	0.055
Mof_C 	C 	0.71988	0.73653	0.47764	-0.022
Mof_H 	H 	0.7212	0.7498	0.4627	0.031
Mof_C 	C 	0.1985	0.21468	0.47651	-0.071
Mof_H 	H 	0.1864	0.2126	0.4608	0.055
Mof_C 	C 	0.21988	0.23653	0.47764	-0.022
Mof_H 	H 	0.2212	0.2498	0.4627	0.031
Mof_C 	C 	0.1985	0.71468	0.97651	-0.07
Mof_H 	H 	0.1864	0.7126	0.9608	0.055
Mof_C 	C 	0.21988	0.73653	0.97764	-0.021
Mof_H 	H 	0.2212	0.7498	0.9627	0.031
Mof_C 	C 	0.6985	0.78532	0.02349	-0.071
Mof_H 	H 	0.6864	0.7874	0.0392	0.055
Mof_C 	C 	0.71988	0.76347	0.02236	-0.022
Mof_H 	H 	0.7212	0.7502	0.0373	0.031
Mof_C 	C 	0.6985	0.28532	0.52349	-0.071
Mof_H 	H 	0.6864	0.2874	0.5392	0.055
Mof_C 	C 	0.71988	0.26347	0.52236	-0.022
Mof_H 	H 	0.7212	0.2502	0.5373	0.031
Mof_C 	C 	0.1985	0.78532	0.52349	-0.071
Mof_H 	H 	0.1864	0.7874	0.5392	0.055
Mof_C 	C 	0.21988	0.76347	0.52236	-0.022
Mof_H 	H 	0.2212	0.7502	0.5373	0.031
Mof_C 	C 	0.1985	0.28532	0.02349	-0.071
Mof_H 	H 	0.1864	0.2874	0.0392	0.055
Mof_C 	C 	0.21988	0.26347	0.02236	-0.022
Mof_H 	H 	0.2212	0.2502	0.0373	0.031
Mof_C 	C 	0.3015	0.78532	0.97651	-0.07
Mof_H 	H 	0.3136	0.7874	0.9608	0.055
Mof_C 	C 	0.28012	0.76347	0.97764	-0.021
Mof_H 	H 	0.2788	0.7502	0.9627	0.031
Mof_C 	C 	0.3015	0.28532	0.47651	-0.071
Mof_H 	H 	0.3136	0.2874	0.4608	0.055
Mof_C 	C 	0.28012	0.26347	0.47764	-0.022
Mof_H 	H 	0.2788	0.2502	0.4627	0.031
Mof_C 	C 	0.8015	0.78532	0.47651	-0.071
Mof_H 	H 	0.8136	0.7874	0.4608	0.055
Mof_C 	C 	0.78012	0.76347	0.47764	-0.022
Mof_H 	H 	0.7788	0.7502	0.4627	0.031
Mof_C 	C 	0.8015	0.28532	0.97651	-0.07
Mof_H 	H 	0.8136	0.2874	0.9608	0.055
Mof_C 	C 	0.78012	0.26347	0.97764	-0.021
Mof_H 	H 	0.7788	0.2502	0.9627	0.031
Mof_C 	C 	0.21468	0.97651	0.6985	-0.07
Mof_H 	H 	0.2126	0.9608	0.6864	0.055
Mof_C 	C 	0.23653	0.97764	0.71988	-0.021
Mof_H 	H 	0.2498	0.9627	0.7212	0.031
Mof_C 	C 	0.21468	0.47651	0.1985	-0.071
Mof_H 	H 	0.2126	0.4608	0.1864	0.055
Mof_C 	C 	0.23653	0.47764	0.21988	-0.022
Mof_H 	H 	0.2498	0.4627	0.2212	0.031
Mof_C 	C 	0.71468	0.97651	0.1985	-0.07
Mof_H 	H 	0.7126	0.9608	0.1864	0.055
Mof_C 	C 	0.73653	0.97764	0.21988	-0.021
Mof_H 	H 	0.7498	0.9627	0.2212	0.031
Mof_C 	C 	0.71468	0.47651	0.6985	-0.071
Mof_H 	H 	0.7126	0.4608	0.6864	0.055
Mof_C 	C 	0.73653	0.47764	0.71988	-0.022
Mof_H 	H 	0.7498	0.4627	0.7212	0.031
Mof_C 	C 	0.21468	0.02349	0.3015	-0.071
Mof_H 	H 	0.2126	0.0392	0.3136	0.055
Mof_C 	C 	0.23653	0.02236	0.28012	-0.022
Mof_H 	H 	0.2498	0.0373	0.2788	0.031
Mof_C 	C 	0.21468	0.52349	0.8015	-0.071
Mof_H 	H 	0.2126	0.5392	0.8136	0.055
Mof_C 	C 	0.23653	0.52236	0.78012	-0.022
Mof_H 	H 	0.2498	0.5373	0.7788	0.031
Mof_C 	C 	0.71468	0.02349	0.8015	-0.071
Mof_H 	H 	0.7126	0.0392	0.8136	0.055
Mof_C 	C 	0.73653	0.02236	0.78012	-0.022
Mof_H 	H 	0.7498	0.0373	0.7788	0.031
Mof_C 	C 	0.71468	0.52349	0.3015	-0.072
Mof_H 	H 	0.7126	0.5392	0.3136	0.055
Mof_C 	C 	0.73653	0.52236	0.28012	-0.022
Mof_H 	H 	0.7498	0.5373	0.2788	0.031
Mof_C 	C 	0.78532	0.97651	0.3015	-0.07
Mof_H 	H 	0.7874	0.9608	0.3136	0.055
Mof_C 	C 	0.76347	0.97764	0.28012	-0.021
Mof_H 	H 	0.7502	0.9627	0.2788	0.031
Mof_C 	C 	0.78532	0.47651	0.8015	-0.071
Mof_H 	H 	0.7874	0.4608	0.8136	0.055
Mof_C 	C 	0.76347	0.47764	0.78012	-0.022
Mof_H 	H 	0.7502	0.4627	0.7788	0.031
Mof_C 	C 	0.28532	0.97651	0.8015	-0.07
Mof_H 	H 	0.2874	0.9608	0.8136	0.055
Mof_C 	C 	0.26347	0.97764	0.78012	-0.021
Mof_H 	H 	0.2502	0.9627	0.7788	0.031
Mof_C 	C 	0.28532	0.47651	0.3015	-0.071
Mof_H 	H 	0.2874	0.4608	0.3136	0.055
Mof_C 	C 	0.26347	0.47764	0.28012	-0.022
Mof_H 	H 	0.2502	0.4627	0.2788	0.031
Mof_C 	C 	0.78532	0.02349	0.6985	-0.071
Mof_H 	H 	0.7874	0.0392	0.6864	0.055
Mof_C 	C 	0.76347	0.02236	0.71988	-0.022
Mof_H 	H 	0.7502	0.0373	0.7212	0.031
Mof_C 	C 	0.78532	0.52349	0.1985	-0.071
Mof_H 	H 	0.7874	0.5392	0.1864	0.055
Mof_C 	C 	0.76347	0.52236	0.21988	-0.022
Mof_H 	H 	0.7502	0.5373	0.2212	0.031
Mof_C 	C 	0.28532	0.02349	0.1985	-0.071
Mof_H 	H 	0.2874	0.0392	0.1864	0.055
Mof_C 	C 	0.26347	0.02236	0.21988	-0.022
Mof_H 	H 	0.2502	0.0373	0.2212	0.031
Mof_C 	C 	0.28532	0.52349	0.6985	-0.071
Mof_H 	H 	0.2874	0.5392	0.6864	0.055
Mof_C 	C 	0.26347	0.52236	0.71988	-0.022
Mof_H 	H 	0.2502	0.5373	0.7212	0.031
Mof_Cu	Cu	0.5	0	0.8505	0.901
Mof_Cu	Cu	0.5	0	0.794	0.901
Mof_Cu	Cu	0.5	0.5	0.3505	0.901
Mof_Cu	Cu	0.5	0.5	0.294	0.901
Mof_Cu	Cu	0.5	0	0.1495	0.901
Mof_Cu	Cu	0.5	0	0.206	0.901
Mof_Cu	Cu	0.5	0.5	0.6495	0.901
Mof_Cu	Cu	0.5	0.5	0.706	0.901
Mof_Cu	Cu	0.8505	0.5	-0	0.901
Mof_Cu	Cu	0.794	0.5	-0	0.901
Mof_Cu	Cu	0.3505	0.5	0.5	0.901
Mof_Cu	Cu	0.294	0.5	0.5	0.901
Mof_Cu	Cu	0.1495	0.5	-0	0.901
Mof_Cu	Cu	0.206	0.5	-0	0.901
Mof_Cu	Cu	0.6495	0.5	0.5	0.901
Mof_Cu	Cu	0.706	0.5	0.5	0.901
Mof_Cu	Cu	1.8747e-33	0.8505	0.5	0.901
Mof_Cu	Cu	1.8747e-33	0.794	0.5	0.901
Mof_Cu	Cu	3.99437e-33	0.3505	-0	0.901
Mof_Cu	Cu	-0	0.294	-0	0.901
Mof_Cu	Cu	1.8747e-33	0.1495	0.5	0.901
Mof_Cu	Cu	9.86344e-33	0.206	0.5	0.901
Mof_Cu	Cu	-0	0.6495	-0	0.901
Mof_Cu	Cu	7.98874e-33	0.706	-0	0.901
Mof_Cu	Cu	2.55772e-33	0.5	0.1495	0.901
Mof_Cu	Cu	8.76111e-33	0.5	0.206	0.901
Mof_Cu	Cu	2.43523e-33	0	0.6495	0.901
Mof_Cu	Cu	1.06358e-32	0	0.706	0.901
Mof_Cu	Cu	-4.79987e-33	0.5	0.8505	0.901
Mof_Cu	Cu	-5.01172e-33	0.5	0.794	0.901
Mof_Cu	Cu	5.30853e-33	3.99437e-33	0.3505	0.901
Mof_Cu	Cu	1.10232e-33	0	0.294	0.901
Mof_Cu	Cu	0.5	0.8505	-0	0.901
Mof_Cu	Cu	0.5	0.794	-0	0.901
Mof_Cu	Cu	0.5	0.3505	0.5	0.901
Mof_Cu	Cu	0.5	0.294	0.5	0.901
Mof_Cu	Cu	0.5	0.1495	-0	0.901
Mof_Cu	Cu	0.5	0.206	-0	0.901
Mof_Cu	Cu	0.5	0.6495	0.5	0.901
Mof_Cu	Cu	0.5	0.706	0.5	0.901
Mof_Cu	Cu	0.8505	0	0.5	0.901
Mof_Cu	Cu	0.794	0	0.5	0.901
Mof_Cu	Cu	0.3505	0	-0	0.901
Mof_Cu	Cu	0.294	0	-0	0.901
Mof_Cu	Cu	0.1495	0	0.5	0.901
Mof_Cu	Cu	0.206	0	0.5	0.901
Mof_Cu	Cu	0.6495	0	-0	0.901
Mof_Cu	Cu	0.706	0	-0	0.901
Mof_O 	O 	0.54211	0	0.84618	-0.416
Mof_O 	O 	0.54195	7.98874e-33	0.79804	-0.41
Mof_C 	C 	0.55388	0	0.8225	0.371
Mof_C 	C 	0.58593	7.98874e-33	0.8218	-0.107
Mof_C 	C 	0.60171	0	0.8474	-0.001
Mof_H 	H 	0.592	0	0.8648	0.05
Mof_C 	C 	0.63079	0	0.8472	-0.028
Mof_C 	C 	0.64526	0	0.8202	0.104
Mof_C 	C 	0.6296	-7.98874e-33	0.7945	-0.154
Mof_H 	H 	0.639	0	0.7769	0.086
Mof_C 	C 	0.60105	0	0.7956	0.061
Mof_H 	H 	0.5907	7.98874e-33	0.7785	0.024
Mof_O 	O 	0.54211	0.5	0.34618	-0.415
Mof_O 	O 	0.54195	0.5	0.29804	-0.41
Mof_C 	C 	0.55388	0.5	0.3225	0.371
Mof_C 	C 	0.58593	0.5	0.3218	-0.107
Mof_C 	C 	0.60171	0.5	0.3474	-0.001
Mof_H 	H 	0.592	0.5	0.3648	0.05
Mof_C 	C 	0.63079	0.5	0.3472	-0.028
Mof_C 	C 	0.64526	0.5	0.3202	0.105
Mof_C 	C 	0.6296	0.5	0.2945	-0.154
Mof_H 	H 	0.639	0.5	0.2769	0.086
Mof_C 	C 	0.60105	0.5	0.2956	0.061
Mof_H 	H 	0.5907	0.5	0.2785	0.024
Mof_O 	O 	0.04211	0	0.34618	-0.416
Mof_O 	O 	0.04195	3.99437e-33	0.29804	-0.41
Mof_C 	C 	0.05388	0	0.3225	0.371
Mof_C 	C 	0.08593	3.99437e-33	0.3218	-0.107
Mof_C 	C 	0.10171	0	0.3474	-0
Mof_H 	H 	0.092	0	0.3648	0.05
Mof_C 	C 	0.13079	0	0.3472	-0.028
Mof_C 	C 	0.14526	0	0.3202	0.104
Mof_C 	C 	0.1296	0	0.2945	-0.154
Mof_H 	H 	0.139	0	0.2769	0.086
Mof_C 	C 	0.10105	3.99437e-33	0.2956	0.061
Mof_H 	H 	0.0907	0	0.2785	0.023
Mof_O 	O 	0.04211	0.5	0.84618	-0.415
Mof_O 	O 	0.04195	0.5	0.79804	-0.41
Mof_C 	C 	0.05388	0.5	0.8225	0.371
Mof_C 	C 	0.08593	0.5	0.8218	-0.107
Mof_C 	C 	0.10171	0.5	0.8474	-0
Mof_H 	H 	0.092	0.5	0.8648	0.05
Mof_C 	C 	0.13079	0.5	0.8472	-0.028
Mof_C 	C 	0.14526	0.5	0.8202	0.105
Mof_C 	C 	0.1296	0.5	0.7945	-0.154
Mof_H 	H 	0.139	0.5	0.7769	0.086
Mof_C 	C 	0.10105	0.5	0.7956	0.061
Mof_H 	H 	0.0907	0.5	0.7785	0.024
Mof_O 	O 	0.45789	0	0.84618	-0.416
Mof_O 	O 	0.45805	7.98874e-33	0.79804	-0.41
Mof_C 	C 	0.44612	0	0.8225	0.371
Mof_C 	C 	0.41407	7.98874e-33	0.8218	-0.107
Mof_C 	C 	0.39829	0	0.8474	-0.001
Mof_H 	H 	0.408	0	0.8648	0.05
Mof_C 	C 	0.36921	0	0.8472	-0.028
Mof_C 	C 	0.35474	0	0.8202	0.104
Mof_C 	C 	0.3704	-7.98874e-33	0.7945	-0.154
Mof_H 	H 	0.361	0	0.7769	0.086
Mof_C 	C 	0.39895	0	0.7956	0.061
Mof_H 	H 	0.4093	7.98874e-33	0.7785	0.024
Mof_O 	O 	0.45789	0.5	0.34618	-0.415
Mof_O 	O 	0.45805	0.5	0.29804	-0.41
Mof_C 	C 	0.44612	0.5	0.3225	0.371
Mof_C 	C 	0.41407	0.5	0.3218	-0.107
Mof_C 	C 	0.39829	0.5	0.3474	-0
Mof_H 	H 	0.408	0.5	0.3648	0.05
Mof_C 	C 	0.36921	0.5	0.3472	-0.028
Mof_C 	C 	0.35474	0.5	0.3202	0.105
Mof_C 	C 	0.3704	0.5	0.2945	-0.154
Mof_H 	H 	0.361	0.5	0.2769	0.086
Mof_C 	C 	0.39895	0.5	0.2956	0.061
Mof_H 	H 	0.4093	0.5	0.2785	0.024
Mof_O 	O 	0.95789	0	0.34618	-0.415
Mof_O 	O 	0.95805	3.99437e-33	0.29804	-0.409
Mof_C 	C 	0.94612	0	0.3225	0.371
Mof_C 	C 	0.91407	3.99437e-33	0.3218	-0.106
Mof_C 	C 	0.89829	0	0.3474	-0.001
Mof_H 	H 	0.908	0	0.3648	0.05
Mof_C 	C 	0.86921	0	0.3472	-0.028
Mof_C 	C 	0.85474	0	0.3202	0.104
Mof_C 	C 	0.8704	0	0.2945	-0.154
Mof_H 	H 	0.861	0	0.2769	0.086
Mof_C 	C 	0.89895	3.99437e-33	0.2956	0.061
Mof_H 	H 	0.9093	0	0.2785	0.024
Mof_O 	O 	0.95789	0.5	0.84618	-0.414
Mof_O 	O 	0.95805	0.5	0.79804	-0.409
Mof_C 	C 	0.94612	0.5	0.8225	0.371
Mof_C 	C 	0.91407	0.5	0.8218	-0.106
Mof_C 	C 	0.89829	0.5	0.8474	-0.001
Mof_H 	H 	0.908	0.5	0.8648	0.05
Mof_C 	C 	0.86921	0.5	0.8472	-0.027
Mof_C 	C 	0.85474	0.5	0.8202	0.105
Mof_C 	C 	0.8704	0.5	0.7945	-0.154
Mof_H 	H 	0.861	0.5	0.7769	0.086
Mof_C 	C 	0.89895	0.5	0.7956	0.061
Mof_H 	H 	0.9093	0.5	0.7785	0.024
Mof_O 	O 	0.45789	0	0.15382	-0.416
Mof_O 	O 	0.45805	0	0.20196	-0.41
Mof_C 	C 	0.44612	1.99718e-33	0.1775	0.371
Mof_C 	C 	0.41407	0	0.1782	-0.107
Mof_C 	C 	0.39829	0	0.1526	-0.001
Mof_H 	H 	0.408	9.98592e-34	0.1352	0.05
Mof_C 	C 	0.36921	0	0.1528	-0.028
Mof_C 	C 	0.35474	1.99718e-33	0.1798	0.104
Mof_C 	C 	0.3704	0	0.2055	-0.154
Mof_H 	H 	0.361	0	0.2231	0.086
Mof_C 	C 	0.39895	1.99718e-33	0.2044	0.061
Mof_H 	H 	0.4093	0	0.2215	0.024
Mof_O 	O 	0.45789	0.5	0.65382	-0.415
Mof_O 	O 	0.45805	0.5	0.70196	-0.41
Mof_C 	C 	0.44612	0.5	0.6775	0.371
Mof_C 	C 	0.41407	0.5	0.6782	-0.107
Mof_C 	C 	0.39829	0.5	0.6526	-0
Mof_H 	H 	0.408	0.5	0.6352	0.05
Mof_C 	C 	0.36921	0.5	0.6528	-0.028
Mof_C 	C 	0.35474	0.5	0.6798	0.105
Mof_C 	C 	0.3704	0.5	0.7055	-0.154
Mof_H 	H 	0.361	0.5	0.7231	0.086
Mof_C 	C 	0.39895	0.5	0.7044	0.061
Mof_H 	H 	0.4093	0.5	0.7215	0.024
Mof_O 	O 	0.95789	0	0.65382	-0.415
Mof_O 	O 	0.95805	0	0.70196	-0.409
Mof_C 	C 	0.94612	7.98874e-33	0.6775	0.371
Mof_C 	C 	0.91407	7.98874e-33	0.6782	-0.106
Mof_C 	C 	0.89829	0	0.6526	-0.001
Mof_H 	H 	0.908	0	0.6352	0.05
Mof_C 	C 	0.86921	0	0.6528	-0.028
Mof_C 	C 	0.85474	0	0.6798	0.104
Mof_C 	C 	0.8704	0	0.7055	-0.154
Mof_H 	H 	0.861	0	0.7231	0.086
Mof_C 	C 	0.89895	0	0.7044	0.061
Mof_H 	H 	0.9093	0	0.7215	0.024
Mof_O 	O 	0.95789	0.5	0.15382	-0.415
Mof_O 	O 	0.95805	0.5	0.20196	-0.409
Mof_C 	C 	0.94612	0.5	0.1775	0.371
Mof_C 	C 	0.91407	0.5	0.1782	-0.106
Mof_C 	C 	0.89829	0.5	0.1526	-0.001
Mof_H 	H 	0.908	0.5	0.1352	0.05
Mof_C 	C 	0.86921	0.5	0.1528	-0.028
Mof_C 	C 	0.85474	0.5	0.1798	0.105
Mof_C 	C 	0.8704	0.5	0.2055	-0.154
Mof_H 	H 	0.861	0.5	0.2231	0.086
Mof_C 	C 	0.89895	0.5	0.2044	0.061
Mof_H 	H 	0.9093	0.5	0.2215	0.024
Mof_O 	O 	0.54211	0	0.15382	-0.416
Mof_O 	O 	0.54195	0	0.20196	-0.41
Mof_C 	C 	0.55388	1.99718e-33	0.1775	0.371
Mof_C 	C 	0.58593	0	0.1782	-0.107
Mof_C 	C 	0.60171	0	0.1526	-0.001
Mof_H 	H 	0.592	9.98592e-34	0.1352	0.05
Mof_C 	C 	0.63079	0	0.1528	-0.028
Mof_C 	C 	0.64526	1.99718e-33	0.1798	0.104
Mof_C 	C 	0.6296	0	0.2055	-0.154
Mof_H 	H 	0.639	0	0.2231	0.086
Mof_C 	C 	0.60105	1.99718e-33	0.2044	0.061
Mof_H 	H 	0.5907	0	0.2215	0.024
Mof_O 	O 	0.54211	0.5	0.65382	-0.415
Mof_O 	O 	0.54195	0.5	0.70196	-0.41
Mof_C 	C 	0.55388	0.5	0.6775	0.371
Mof_C 	C 	0.58593	0.5	0.6782	-0.107
Mof_C 	C 	0.60171	0.5	0.6526	-0.001
Mof_H 	H 	0.592	0.5	0.6352	0.05
Mof_C 	C 	0.63079	0.5	0.6528	-0.028
Mof_C 	C 	0.64526	0.5	0.6798	0.105
Mof_C 	C 	0.6296	0.5	0.7055	-0.154
Mof_H 	H 	0.639	0.5	0.7231	0.086
Mof_C 	C 	0.60105	0.5	0.7044	0.061
Mof_H 	H 	0.5907	0.5	0.7215	0.024
Mof_O 	O 	0.04211	0	0.65382	-0.416
Mof_O 	O 	0.04195	0	0.70196	-0.41
Mof_C 	C 	0.05388	7.98874e-33	0.6775	0.371
Mof_C 	C 	0.08593	7.98874e-33	0.6782	-0.107
Mof_C 	C 	0.10171	0	0.6526	-0
Mof_H 	H 	0.092	0	0.6352	0.05
Mof_C 	C 	0.13079	0	0.6528	-0.028
Mof_C 	C 	0.14526	0	0.6798	0.104
Mof_C 	C 	0.1296	0	0.7055	-0.154
Mof_H 	H 	0.139	0	0.7231	0.086
Mof_C 	C 	0.10105	0	0.7044	0.061
Mof_H 	H 	0.0907	0	0.7215	0.024
Mof_O 	O 	0.04211	0.5	0.15382	-0.416
Mof_O 	O 	0.04195	0.5	0.20196	-0.41
Mof_C 	C 	0.05388	0.5	0.1775	0.371
Mof_C 	C 	0.08593	0.5	0.1782	-0.107
Mof_C 	C 	0.10171	0.5	0.1526	-0
Mof_H 	H 	0.092	0.5	0.1352	0.05
Mof_C 	C 	0.13079	0.5	0.1528	-0.028
Mof_C 	C 	0.14526	0.5	0.1798	0.105
Mof_C 	C 	0.1296	0.5	0.2055	-0.154
Mof_H 	H 	0.139	0.5	0.2231	0.086
Mof_C 	C 	0.10105	0.5	0.2044	0.061
Mof_H 	H 	0.0907	0.5	0.2215	0.024
Mof_O 	O 	0.84618	0.54211	-0	-0.416
Mof_O 	O 	0.79804	0.54195	-0	-0.41
Mof_C 	C 	0.8225	0.55388	-0	0.371
Mof_C 	C 	0.8218	0.58593	-0	-0.107
Mof_C 	C 	0.8474	0.60171	-0	-0.001
Mof_H 	H 	0.8648	0.592	-0	0.05
Mof_C 	C 	0.8472	0.63079	-0	-0.028
Mof_C 	C 	0.8202	0.64526	-0	0.104
Mof_C 	C 	0.7945	0.6296	-0	-0.154
Mof_H 	H 	0.7769	0.639	-0	0.086
Mof_C 	C 	0.7956	0.60105	-0	0.061
Mof_H 	H 	0.7785	0.5907	-0	0.024
Mof_O 	O 	0.84618	0.04211	0.5	-0.415
Mof_O 	O 	0.79804	0.04195	0.5	-0.41
Mof_C 	C 	0.8225	0.05388	0.5	0.371
Mof_C 	C 	0.8218	0.08593	0.5	-0.107
Mof_C 	C 	0.8474	0.10171	0.5	-0
Mof_H 	H 	0.8648	0.092	0.5	0.05
Mof_C 	C 	0.8472	0.13079	0.5	-0.028
Mof_C 	C 	0.8202	0.14526	0.5	0.105
Mof_C 	C 	0.7945	0.1296	0.5	-0.154
Mof_H 	H 	0.7769	0.139	0.5	0.086
Mof_C 	C 	0.7956	0.10105	0.5	0.061
Mof_H 	H 	0.7785	0.0907	0.5	0.024
Mof_O 	O 	0.34618	0.54211	0.5	-0.415
Mof_O 	O 	0.29804	0.54195	0.5	-0.41
Mof_C 	C 	0.3225	0.55388	0.5	0.371
Mof_C 	C 	0.3218	0.58593	0.5	-0.107
Mof_C 	C 	0.3474	0.60171	0.5	-0
Mof_H 	H 	0.3648	0.592	0.5	0.05
Mof_C 	C 	0.3472	0.63079	0.5	-0.028
Mof_C 	C 	0.3202	0.64526	0.5	0.105
Mof_C 	C 	0.2945	0.6296	0.5	-0.154
Mof_H 	H 	0.2769	0.639	0.5	0.086
Mof_C 	C 	0.2956	0.60105	0.5	0.061
Mof_H 	H 	0.2785	0.5907	0.5	0.024
Mof_O 	O 	0.34618	0.04211	-0	-0.416
Mof_O 	O 	0.29804	0.04195	-0	-0.41
Mof_C 	C 	0.3225	0.05388	-0	0.371
Mof_C 	C 	0.3218	0.08593	-0	-0.107
Mof_C 	C 	0.3474	0.10171	-0	-0
Mof_H 	H 	0.3648	0.092	-0	0.05
Mof_C 	C 	0.3472	0.13079	-0	-0.028
Mof_C 	C 	0.3202	0.14526	-0	0.104
Mof_C 	C 	0.2945	0.1296	-0	-0.154
Mof_H 	H 	0.2769	0.139	-0	0.086
Mof_C 	C 	0.2956	0.10105	-0	0.061
Mof_H 	H 	0.2785	0.0907	-0	0.023
Mof_O 	O 	0.84618	0.45789	-0	-0.416
Mof_O 	O 	0.79804	0.45805	-0	-0.41
Mof_C 	C 	0.8225	0.44612	-0	0.371
Mof_C 	C 	0.8218	0.41407	-0	-0.107
Mof_C 	C 	0.8474	0.39829	-0	-0.001
Mof_H 	H 	0.8648	0.408	-0	0.05
Mof_C 	C 	0.8472	0.36921	-0	-0.028
Mof_C 	C 	0.8202	0.35474	-0	0.104
Mof_C 	C 	0.7945	0.3704	-0	-0.154
Mof_H 	H 	0.7769	0.361	-0	0.086
Mof_C 	C 	0.7956	0.39895	-0	0.061
Mof_H 	H 	0.7785	0.4093	-0	0.024
Mof_O 	O 	0.84618	0.95789	0.5	-0.414
Mof_O 	O 	0.79804	0.95805	0.5	-0.409
Mof_C 	C 	0.8225	0.94612	0.5	0.371
Mof_C 	C 	0.8218	0.91407	0.5	-0.106
Mof_C 	C 	0.8474	0.89829	0.5	-0.001
Mof_H 	H 	0.8648	0.908	0.5	0.05
Mof_C 	C 	0.8472	0.86921	0.5	-0.027
Mof_C 	C 	0.8202	0.85474	0.5	0.105
Mof_C 	C 	0.7945	0.8704	0.5	-0.154
Mof_H 	H 	0.7769	0.861	0.5	0.086
Mof_C 	C 	0.7956	0.89895	0.5	0.061
Mof_H 	H 	0.7785	0.9093	0.5	0.024
Mof_O 	O 	0.34618	0.45789	0.5	-0.415
Mof_O 	O 	0.29804	0.45805	0.5	-0.41
Mof_C 	C 	0.3225	0.44612	0.5	0.371
Mof_C 	C 	0.3218	0.41407	0.5	-0.107
Mof_C 	C 	0.3474	0.39829	0.5	-0
Mof_H 	H 	0.3648	0.408	0.5	0.05
Mof_C 	C 	0.3472	0.36921	0.5	-0.028
Mof_C 	C 	0.3202	0.35474	0.5	0.105
Mof_C 	C 	0.2945	0.3704	0.5	-0.154
Mof_H 	H 	0.2769	0.361	0.5	0.086
Mof_C 	C 	0.2956	0.39895	0.5	0.061
Mof_H 	H 	0.2785	0.4093	0.5	0.024
Mof_O 	O 	0.34618	0.95789	-0	-0.415
Mof_O 	O 	0.29804	0.95805	-0	-0.409
Mof_C 	C 	0.3225	0.94612	-0	0.371
Mof_C 	C 	0.3218	0.91407	-0	-0.106
Mof_C 	C 	0.3474	0.89829	-0	-0.001
Mof_H 	H 	0.3648	0.908	-0	0.05
Mof_C 	C 	0.3472	0.86921	-0	-0.028
Mof_C 	C 	0.3202	0.85474	-0	0.104
Mof_C 	C 	0.2945	0.8704	-0	-0.154
Mof_H 	H 	0.2769	0.861	-0	0.086
Mof_C 	C 	0.2956	0.89895	-0	0.061
Mof_H 	H 	0.2785	0.9093	-0	0.024
Mof_O 	O 	0.15382	0.45789	-0	-0.416
Mof_O 	O 	0.20196	0.45805	-0	-0.41
Mof_C 	C 	0.1775	0.44612	-0	0.371
Mof_C 	C 	0.1782	0.41407	-0	-0.107
Mof_C 	C 	0.1526	0.39829	-0	-0.001
Mof_H 	H 	0.1352	0.408	-0	0.05
Mof_C 	C 	0.1528	0.36921	-0	-0.028
Mof_C 	C 	0.1798	0.35474	-0	0.104
Mof_C 	C 	0.2055	0.3704	-0	-0.154
Mof_H 	H 	0.2231	0.361	-0	0.086
Mof_C 	C 	0.2044	0.39895	-0	0.061
Mof_H 	H 	0.2215	0.4093	-0	0.024
Mof_O 	O 	0.15382	0.95789	0.5	-0.415
Mof_O 	O 	0.20196	0.95805	0.5	-0.409
Mof_C 	C 	0.1775	0.94612	0.5	0.371
Mof_C 	C 	0.1782	0.91407	0.5	-0.106
Mof_C 	C 	0.1526	0.89829	0.5	-0.001
Mof_H 	H 	0.1352	0.908	0.5	0.05
Mof_C 	C 	0.1528	0.86921	0.5	-0.028
Mof_C 	C 	0.1798	0.85474	0.5	0.105
Mof_C 	C 	0.2055	0.8704	0.5	-0.154
Mof_H 	H 	0.2231	0.861	0.5	0.086
Mof_C 	C 	0.2044	0.89895	0.5	0.061
Mof_H 	H 	0.2215	0.9093	0.5	0.024
Mof_O 	O 	0.65382	0.45789	0.5	-0.415
Mof_O 	O 	0.70196	0.45805	0.5	-0.41
Mof_C 	C 	0.6775	0.44612	0.5	0.371
Mof_C 	C 	0.6782	0.41407	0.5	-0.107
Mof_C 	C 	0.6526	0.39829	0.5	-0
Mof_H 	H 	0.6352	0.408	0.5	0.05
Mof_C 	C 	0.6528	0.36921	0.5	-0.028
Mof_C 	C 	0.6798	0.35474	0.5	0.105
Mof_C 	C 	0.7055	0.3704	0.5	-0.154
Mof_H 	H 	0.7231	0.361	0.5	0.086
Mof_C 	C 	0.7044	0.39895	0.5	0.061
Mof_H 	H 	0.7215	0.4093	0.5	0.024
Mof_O 	O 	0.65382	0.95789	-0	-0.415
Mof_O 	O 	0.70196	0.95805	-0	-0.409
Mof_C 	C 	0.6775	0.94612	-0	0.371
Mof_C 	C 	0.6782	0.91407	-0	-0.106
Mof_C 	C 	0.6526	0.89829	-0	-0.001
Mof_H 	H 	0.6352	0.908	-0	0.05
Mof_C 	C 	0.6528	0.86921	-0	-0.028
Mof_C 	C 	0.6798	0.85474	-0	0.104
Mof_C 	C 	0.7055	0.8704	-0	-0.154
Mof_H 	H 	0.7231	0.861	-0	0.086
Mof_C 	C 	0.7044	0.89895	-0	0.061
Mof_H 	H 	0.7215	0.9093	-0	0.024
Mof_O 	O 	0.15382	0.54211	-0	-0.416
Mof_O 	O 	0.20196	0.54195	-0	-0.41
Mof_C 	C 	0.1775	0.55388	-0	0.371
Mof_C 	C 	0.1782	0.58593	-0	-0.107
Mof_C 	C 	0.1526	0.60171	-0	-0.001
Mof_H 	H 	0.1352	0.592	-0	0.05
Mof_C 	C 	0.1528	0.63079	-0	-0.028
Mof_C 	C 	0.1798	0.64526	-0	0.104
Mof_C 	C 	0.2055	0.6296	-0	-0.154
Mof_H 	H 	0.2231	0.639	-0	0.086
Mof_C 	C 	0.2044	0.60105	-0	0.061
Mof_H 	H 	0.2215	0.5907	-0	0.024
Mof_O 	O 	0.15382	0.04211	0.5	-0.416
Mof_O 	O 	0.20196	0.04195	0.5	-0.41
Mof_C 	C 	0.1775	0.05388	0.5	0.371
Mof_C 	C 	0.1782	0.08593	0.5	-0.107
Mof_C 	C 	0.1526	0.10171	0.5	-0
Mof_H 	H 	0.1352	0.092	0.5	0.05
Mof_C 	C 	0.1528	0.13079	0.5	-0.028
Mof_C 	C 	0.1798	0.14526	0.5	0.105
Mof_C 	C 	0.2055	0.1296	0.5	-0.154
Mof_H 	H 	0.2231	0.139	0.5	0.086
Mof_C 	C 	0.2044	0.10105	0.5	0.061
Mof_H 	H 	0.2215	0.0907	0.5	0.024
Mof_O 	O 	0.65382	0.54211	0.5	-0.415
Mof_O 	O 	0.70196	0.54195	0.5	-0.41
Mof_C 	C 	0.6775	0.55388	0.5	0.371
Mof_C 	C 	0.6782	0.58593	0.5	-0.107
Mof_C 	C 	0.6526	0.60171	0.5	-0
Mof_H 	H 	0.6352	0.592	0.5	0.05
Mof_C 	C 	0.6528	0.63079	0.5	-0.028
Mof_C 	C 	0.6798	0.64526	0.5	0.105
Mof_C 	C 	0.7055	0.6296	0.5	-0.154
Mof_H 	H 	0.7231	0.639	0.5	0.086
Mof_C 	C 	0.7044	0.60105	0.5	0.061
Mof_H 	H 	0.7215	0.5907	0.5	0.024
Mof_O 	O 	0.65382	0.04211	-0	-0.416
Mof_O 	O 	0.70196	0.04195	-0	-0.41
Mof_C 	C 	0.6775	0.05388	-0	0.371
Mof_C 	C 	0.6782	0.08593	-0	-0.107
Mof_C 	C 	0.6526	0.10171	-0	-0
Mof_H 	H 	0.6352	0.092	-0	0.05
Mof_C 	C 	0.6528	0.13079	-0	-0.028
Mof_C 	C 	0.6798	0.14526	-0	0.104
Mof_C 	C 	0.7055	0.1296	-0	-0.154
Mof_H 	H 	0.7231	0.139	-0	0.086
Mof_C 	C 	0.7044	0.10105	-0	0.061
Mof_H 	H 	0.7215	0.0907	-0	0.024
Mof_O 	O 	-1.96178e-33	0.84618	0.54211	-0.416
Mof_O 	O 	1.40151e-32	0.79804	0.54195	-0.41
Mof_C 	C 	2.07672e-33	0.8225	0.55388	0.371
Mof_C 	C 	1.01856e-32	0.8218	0.58593	-0.107
Mof_C 	C 	2.25605e-33	0.8474	0.60171	-0.001
Mof_H 	H 	2.21964e-33	0.8648	0.592	0.05
Mof_C 	C 	-5.62365e-33	0.8472	0.63079	-0.028
Mof_C 	C 	1.83968e-32	0.8202	0.64526	0.104
Mof_C 	C 	-1.36169e-32	0.7945	0.6296	-0.154
Mof_H 	H 	1.03846e-32	0.7769	0.639	0.086
Mof_C 	C 	1.82311e-32	0.7956	0.60105	0.061
Mof_H 	H 	1.81922e-32	0.7785	0.5907	0.024
Mof_O 	O 	1.65578e-33	0.34618	0.04211	-0.416
Mof_O 	O 	6.14884e-33	0.29804	0.04195	-0.41
Mof_C 	C 	9.18935e-33	0.3225	0.05388	0.371
Mof_C 	C 	3.22186e-34	0.3218	0.08593	-0.107
Mof_C 	C 	4.37572e-33	0.3474	0.10171	-0
Mof_H 	H 	2.34213e-33	0.3648	0.092	0.05
Mof_C 	C 	5.48335e-33	0.3472	0.13079	-0.028
Mof_C 	C 	1.54323e-33	0.3202	0.14526	0.104
Mof_C 	C 	5.47888e-33	0.2945	0.1296	-0.154
Mof_H 	H 	1.51976e-33	0.2769	0.139	0.086
Mof_C 	C 	3.78877e-34	0.2956	0.10105	0.061
Mof_H 	H 	5.33303e-33	0.2785	0.0907	0.023
Mof_O 	O 	0.5	0.84618	0.04211	-0.415
Mof_O 	O 	0.5	0.79804	0.04195	-0.41
Mof_C 	C 	0.5	0.8225	0.05388	0.371
Mof_C 	C 	0.5	0.8218	0.08593	-0.107
Mof_C 	C 	0.5	0.8474	0.10171	-0
Mof_H 	H 	0.5	0.8648	0.092	0.05
Mof_C 	C 	0.5	0.8472	0.13079	-0.028
Mof_C 	C 	0.5	0.8202	0.14526	0.105
Mof_C 	C 	0.5	0.7945	0.1296	-0.154
Mof_H 	H 	0.5	0.7769	0.139	0.086
Mof_C 	C 	0.5	0.7956	0.10105	0.061
Mof_H 	H 	0.5	0.7785	0.0907	0.024
Mof_O 	O 	0.5	0.34618	0.54211	-0.415
Mof_O 	O 	0.5	0.29804	0.54195	-0.41
Mof_C 	C 	0.5	0.3225	0.55388	0.371
Mof_C 	C 	0.5	0.3218	0.58593	-0.107
Mof_C 	C 	0.5	0.3474	0.60171	-0
Mof_H 	H 	0.5	0.3648	0.592	0.05
Mof_C 	C 	0.5	0.3472	0.63079	-0.028
Mof_C 	C 	0.5	0.3202	0.64526	0.105
Mof_C 	C 	0.5	0.2945	0.6296	-0.154
Mof_H 	H 	0.5	0.2769	0.639	0.086
Mof_C 	C 	0.5	0.2956	0.60105	0.061
Mof_H 	H 	0.5	0.2785	0.5907	0.024
Mof_O 	O 	-1.02663e-32	0.84618	0.45789	-0.416
Mof_O 	O 	1.37005e-32	0.79804	0.45805	-0.41
Mof_C 	C 	1.76502e-32	0.8225	0.44612	0.371
Mof_C 	C 	1.35356e-32	0.8218	0.41407	-0.107
Mof_C 	C 	9.48209e-33	0.8474	0.39829	-0.001
Mof_H 	H 	5.52412e-33	0.8648	0.408	0.05
Mof_C 	C 	-6.60442e-33	0.8472	0.36921	-0.028
Mof_C 	C 	9.3188e-33	0.8202	0.35474	0.104
Mof_C 	C 	1.38878e-33	0.7945	0.3704	-0.154
Mof_H 	H 	9.34227e-33	0.7769	0.361	0.086
Mof_C 	C 	1.34789e-32	0.7956	0.39895	0.061
Mof_H 	H 	1.53463e-33	0.7785	0.4093	0.024
Mof_O 	O 	-4.39723e-33	0.34618	0.95789	-0.415
Mof_O 	O 	3.59211e-33	0.29804	0.95805	-0.409
Mof_C 	C 	1.95249e-32	0.3225	0.94612	0.371
Mof_C 	C 	3.42721e-33	0.3218	0.91407	-0.106
Mof_C 	C 	1.13568e-32	0.3474	0.89829	-0.001
Mof_H 	H 	3.40445e-33	0.3648	0.908	0.05
Mof_C 	C 	3.25902e-33	0.3472	0.86921	-0.028
Mof_C 	C 	3.20476e-33	0.3202	0.85474	0.104
Mof_C 	C 	1.12522e-32	0.2945	0.8704	-0.154
Mof_H 	H 	1.1217e-32	0.2769	0.861	0.086
Mof_C 	C 	3.37052e-33	0.2956	0.89895	0.061
Mof_H 	H 	1.93868e-32	0.2785	0.9093	0.024
Mof_O 	O 	0.5	0.84618	0.95789	-0.414
Mof_O 	O 	0.5	0.79804	0.95805	-0.409
Mof_C 	C 	0.5	0.8225	0.94612	0.371
Mof_C 	C 	0.5	0.8218	0.91407	-0.106
Mof_C 	C 	0.5	0.8474	0.89829	-0.001
Mof_H 	H 	0.5	0.8648	0.908	0.05
Mof_C 	C 	0.5	0.8472	0.86921	-0.027
Mof_C 	C 	0.5	0.8202	0.85474	0.105
Mof_C 	C 	0.5	0.7945	0.8704	-0.154
Mof_H 	H 	0.5	0.7769	0.861	0.086
Mof_C 	C 	0.5	0.7956	0.89895	0.061
Mof_H 	H 	0.5	0.7785	0.9093	0.024
Mof_O 	O 	0.5	0.34618	0.45789	-0.415
Mof_O 	O 	0.5	0.29804	0.45805	-0.41
Mof_C 	C 	0.5	0.3225	0.44612	0.371
Mof_C 	C 	0.5	0.3218	0.41407	-0.107
Mof_C 	C 	0.5	0.3474	0.39829	-0
Mof_H 	H 	0.5	0.3648	0.408	0.05
Mof_C 	C 	0.5	0.3472	0.36921	-0.028
Mof_C 	C 	0.5	0.3202	0.35474	0.105
Mof_C 	C 	0.5	0.2945	0.3704	-0.154
Mof_H 	H 	0.5	0.2769	0.361	0.086
Mof_C 	C 	0.5	0.2956	0.39895	0.061
Mof_H 	H 	0.5	0.2785	0.4093	0.024
Mof_O 	O 	5.71118e-33	0.15382	0.45789	-0.416
Mof_O 	O 	5.71178e-33	0.20196	0.45805	-0.41
Mof_C 	C 	1.67268e-33	0.1775	0.44612	0.371
Mof_C 	C 	5.54688e-33	0.1782	0.41407	-0.107
Mof_C 	C 	5.48772e-33	0.1526	0.39829	-0.001
Mof_H 	H 	5.52412e-33	0.1352	0.408	0.05
Mof_C 	C 	5.37868e-33	0.1528	0.36921	-0.028
Mof_C 	C 	1.33006e-33	0.1798	0.35474	0.104
Mof_C 	C 	1.38878e-33	0.2055	0.3704	-0.154
Mof_H 	H 	1.35353e-33	0.2231	0.361	0.086
Mof_C 	C 	-2.49855e-33	0.2044	0.39895	0.061
Mof_H 	H 	9.52337e-33	0.2215	0.4093	0.024
Mof_O 	O 	-4.39723e-33	0.65382	0.95789	-0.415
Mof_O 	O 	-4.39663e-33	0.70196	0.95805	-0.409
Mof_C 	C 	-4.44136e-33	0.6775	0.94612	0.371
Mof_C 	C 	-4.56152e-33	0.6782	0.91407	-0.106
Mof_C 	C 	1.13568e-32	0.6526	0.89829	-0.001
Mof_H 	H 	1.13932e-32	0.6352	0.908	0.05
Mof_C 	C 	3.25902e-33	0.6528	0.86921	-0.028
Mof_C 	C 	1.11935e-32	0.6798	0.85474	0.104
Mof_C 	C 	3.26348e-33	0.7055	0.8704	-0.154
Mof_H 	H 	2.71944e-32	0.7231	0.861	0.086
Mof_C 	C 	1.13593e-32	0.7044	0.89895	0.061
Mof_H 	H 	2.73755e-32	0.7215	0.9093	0.024
Mof_O 	O 	0.5	0.15382	0.95789	-0.415
Mof_O 	O 	0.5	0.20196	0.95805	-0.409
Mof_C 	C 	0.5	0.1775	0.94612	0.371
Mof_C 	C 	0.5	0.1782	0.91407	-0.106
Mof_C 	C 	0.5	0.1526	0.89829	-0.001
Mof_H 	H 	0.5	0.1352	0.908	0.05
Mof_C 	C 	0.5	0.1528	0.86921	-0.028
Mof_C 	C 	0.5	0.1798	0.85474	0.105
Mof_C 	C 	0.5	0.2055	0.8704	-0.154
Mof_H 	H 	0.5	0.2231	0.861	0.086
Mof_C 	C 	0.5	0.2044	0.89895	0.061
Mof_H 	H 	0.5	0.2215	0.9093	0.024
Mof_O 	O 	0.5	0.65382	0.45789	-0.415
Mof_O 	O 	0.5	0.70196	0.45805	-0.41
Mof_C 	C 	0.5	0.6775	0.44612	0.371
Mof_C 	C 	0.5	0.6782	0.41407	-0.107
Mof_C 	C 	0.5	0.6526	0.39829	-0
Mof_H 	H 	0.5	0.6352	0.408	0.05
Mof_C 	C 	0.5	0.6528	0.36921	-0.028
Mof_C 	C 	0.5	0.6798	0.35474	0.105
Mof_C 	C 	0.5	0.7055	0.3704	-0.154
Mof_H 	H 	0.5	0.7231	0.361	0.086
Mof_C 	C 	0.5	0.7044	0.39895	0.061
Mof_H 	H 	0.5	0.7215	0.4093	0.024
Mof_O 	O 	6.02696e-33	0.15382	0.54211	-0.416
Mof_O 	O 	-1.96238e-33	0.20196	0.54195	-0.41
Mof_C 	C 	2.07672e-33	0.1775	0.55388	0.371
Mof_C 	C 	1.01856e-32	0.1782	0.58593	-0.107
Mof_C 	C 	1.02448e-32	0.1526	0.60171	-0.001
Mof_H 	H 	1.02084e-32	0.1352	0.592	0.05
Mof_C 	C 	2.36508e-33	0.1528	0.63079	-0.028
Mof_C 	C 	1.04081e-32	0.1798	0.64526	0.104
Mof_C 	C 	1.03494e-32	0.2055	0.6296	-0.154
Mof_H 	H 	1.03846e-32	0.2231	0.639	0.086
Mof_C 	C 	-5.73516e-33	0.2044	0.60105	0.061
Mof_H 	H 	1.02035e-32	0.2215	0.5907	0.024
Mof_O 	O 	1.65578e-33	0.65382	0.04211	-0.416
Mof_O 	O 	2.15447e-33	0.70196	0.04195	-0.41
Mof_C 	C 	1.20061e-33	0.6775	0.05388	0.371
Mof_C 	C 	4.31656e-33	0.6782	0.08593	-0.107
Mof_C 	C 	4.37572e-33	0.6526	0.10171	-0
Mof_H 	H 	-1.65224e-33	0.6352	0.092	0.05
Mof_C 	C 	1.48898e-33	0.6528	0.13079	-0.028
Mof_C 	C 	1.54323e-33	0.6798	0.14526	0.104
Mof_C 	C 	9.47325e-33	0.7055	0.1296	-0.154
Mof_H 	H 	7.51131e-33	0.7231	0.139	0.086
Mof_C 	C 	4.37325e-33	0.7044	0.10105	0.061
Mof_H 	H 	7.33022e-33	0.7215	0.0907	0.024
Mof_O 	O 	0.5	0.15382	0.04211	-0.416
Mof_O 	O 	0.5	0.20196	0.04195	-0.41
Mof_C 	C 	0.5	0.1775	0.05388	0.371
Mof_C 	C 	0.5	0.1782	0.08593	-0.107
Mof_C 	C 	0.5	0.1526	0.10171	-0
Mof_H 	H 	0.5	0.1352	0.092	0.05
Mof_C 	C 	0.5	0.1528	0.13079	-0.028
Mof_C 	C 	0.5	0.1798	0.14526	0.105
Mof_C 	C 	0.5	0.2055	0.1296	-0.154
Mof_H 	H 	0.5	0.2231	0.139	0.086
Mof_C 	C 	0.5	0.2044	0.10105	0.061
Mof_H 	H 	0.5	0.2215	0.0907	0.024
Mof_O 	O 	0.5	0.65382	0.54211	-0.415
Mof_O 	O 	0.5	0.70196	0.54195	-0.41
Mof_C 	C 	0.5	0.6775	0.55388	0.371
Mof_C 	C 	0.5	0.6782	0.58593	-0.107
Mof_C 	C 	0.5	0.6526	0.60171	-0
Mof_H 	H 	0.5	0.6352	0.592	0.05
Mof_C 	C 	0.5	0.6528	0.63079	-0.028
Mof_C 	C 	0.5	0.6798	0.64526	0.105
Mof_C 	C 	0.5	0.7055	0.6296	-0.154
Mof_H 	H 	0.5	0.7231	0.639	0.086
Mof_C 	C 	0.5	0.7044	0.60105	0.061
Mof_H 	H 	0.5	0.7215	0.5907	0.024
Mof_O 	O 	4.5711e-33	0.54211	0.15382	-0.416
Mof_O 	O 	-3.23714e-33	0.54195	0.20196	-0.41
Mof_C 	C 	6.65707e-33	0.55388	0.1775	0.371
Mof_C 	C 	8.65688e-33	0.58593	0.1782	-0.107
Mof_C 	C 	1.25553e-32	0.60171	0.1526	-0.001
Mof_H 	H 	1.14914e-32	0.592	0.1352	0.05
Mof_C 	C 	5.72908e-34	0.63079	0.1528	-0.028
Mof_C 	C 	1.26572e-32	0.64526	0.1798	0.104
Mof_C 	C 	1.07564e-32	0.6296	0.2055	-0.154
Mof_H 	H 	1.28196e-32	0.639	0.2231	0.086
Mof_C 	C 	-3.22799e-33	0.60105	0.2044	0.061
Mof_H 	H 	8.81923e-33	0.5907	0.2215	0.024
Mof_O 	O 	2.45143e-33	0.04211	0.65382	-0.416
Mof_O 	O 	2.63193e-33	0.04195	0.70196	-0.41
Mof_C 	C 	2.54022e-33	0.05388	0.6775	0.371
Mof_C 	C 	2.54284e-33	0.08593	0.6782	-0.107
Mof_C 	C 	2.44686e-33	0.10171	0.6526	-0
Mof_H 	H 	-5.60712e-33	0.092	0.6352	0.05
Mof_C 	C 	2.44761e-33	0.13079	0.6528	-0.028
Mof_C 	C 	2.54884e-33	0.14526	0.6798	0.104
Mof_C 	C 	1.06339e-32	0.1296	0.7055	-0.154
Mof_H 	H 	1.06999e-32	0.139	0.7231	0.086
Mof_C 	C 	2.64108e-33	0.10105	0.7044	0.061
Mof_H 	H 	1.06939e-32	0.0907	0.7215	0.024
Mof_O 	O 	0.5	0.54211	0.65382	-0.415
Mof_O 	O 	0.5	0.54195	0.70196	-0.41
Mof_C 	C 	0.5	0.55388	0.6775	0.371
Mof_C 	C 	0.5	0.58593	0.6782	-0.107
Mof_C 	C 	0.5	0.60171	0.6526	-0.001
Mof_H 	H 	0.5	0.592	0.6352	0.05
Mof_C 	C 	0.5	0.63079	0.6528	-0.028
Mof_C 	C 	0.5	0.64526	0.6798	0.105
Mof_C 	C 	0.5	0.6296	0.7055	-0.154
Mof_H 	H 	0.5	0.639	0.7231	0.086
Mof_C 	C 	0.5	0.60105	0.7044	0.061
Mof_H 	H 	0.5	0.5907	0.7215	0.024
Mof_O 	O 	0.5	0.04211	0.15382	-0.416
Mof_O 	O 	0.5	0.04195	0.20196	-0.41
Mof_C 	C 	0.5	0.05388	0.1775	0.371
Mof_C 	C 	0.5	0.08593	0.1782	-0.107
Mof_C 	C 	0.5	0.10171	0.1526	-0
Mof_H 	H 	0.5	0.092	0.1352	0.05
Mof_C 	C 	0.5	0.13079	0.1528	-0.028
Mof_C 	C 	0.5	0.14526	0.1798	0.105
Mof_C 	C 	0.5	0.1296	0.2055	-0.154
Mof_H 	H 	0.5	0.139	0.2231	0.086
Mof_C 	C 	0.5	0.10105	0.2044	0.061
Mof_H 	H 	0.5	0.0907	0.2215	0.024
Mof_O 	O 	4.5711e-33	0.45789	0.15382	-0.416
Mof_O 	O 	4.7516e-33	0.45805	0.20196	-0.41
Mof_C 	C 	6.65707e-33	0.44612	0.1775	0.371
Mof_C 	C 	4.66251e-33	0.41407	0.1782	-0.107
Mof_C 	C 	4.56653e-33	0.39829	0.1526	-0.001
Mof_H 	H 	3.5027e-33	0.408	0.1352	0.05
Mof_C 	C 	4.56728e-33	0.36921	0.1528	-0.028
Mof_C 	C 	4.66851e-33	0.35474	0.1798	0.104
Mof_C 	C 	6.76206e-33	0.3704	0.2055	-0.154
Mof_H 	H 	8.36491e-34	0.361	0.2231	0.086
Mof_C 	C 	7.66377e-34	0.39895	0.2044	0.061
Mof_H 	H 	8.81923e-33	0.4093	0.2215	0.024
Mof_O 	O 	2.45143e-33	0.95789	0.65382	-0.415
Mof_O 	O 	-5.35681e-33	0.95805	0.70196	-0.409
Mof_C 	C 	2.54022e-33	0.94612	0.6775	0.371
Mof_C 	C 	2.54284e-33	0.91407	0.6782	-0.106
Mof_C 	C 	1.04356e-32	0.89829	0.6526	-0.001
Mof_H 	H 	1.03704e-32	0.908	0.6352	0.05
Mof_C 	C 	2.44761e-33	0.86921	0.6528	-0.028
Mof_C 	C 	1.05376e-32	0.85474	0.6798	0.104
Mof_C 	C 	2.6452e-33	0.8704	0.7055	-0.154
Mof_H 	H 	2.66774e-32	0.861	0.7231	0.086
Mof_C 	C 	1.06298e-32	0.89895	0.7044	0.061
Mof_H 	H 	2.66714e-32	0.9093	0.7215	0.024
Mof_O 	O 	0.5	0.45789	0.65382	-0.415
Mof_O 	O 	0.5	0.45805	0.70196	-0.41
Mof_C 	C 	0.5	0.44612	0.6775	0.371
Mof_C 	C 	0.5	0.41407	0.6782	-0.107
Mof_C 	C 	0.5	0.39829	0.6526	-0
Mof_H 	H 	0.5	0.408	0.6352	0.05
Mof_C 	C 	0.5	0.36921	0.6528	-0.028
Mof_C 	C 	0.5	0.35474	0.6798	0.105
Mof_C 	C 	0.5	0.3704	0.7055	-0.154
Mof_H 	H 	0.5	0.361	0.7231	0.086
Mof_C 	C 	0.5	0.39895	0.7044	0.061
Mof_H 	H 	0.5	0.4093	0.7215	0.024
Mof_O 	O 	0.5	0.95789	0.15382	-0.415
Mof_O 	O 	0.5	0.95805	0.20196	-0.409
Mof_C 	C 	0.5	0.94612	0.1775	0.371
Mof_C 	C 	0.5	0.91407	0.1782	-0.106
Mof_C 	C 	0.5	0.89829	0.1526	-0.001
Mof_H 	H 	0.5	0.908	0.1352	0.05
Mof_C 	C 	0.5	0.86921	0.1528	-0.028
Mof_C 	C 	0.5	0.85474	0.1798	0.105
Mof_C 	C 	0.5	0.8704	0.2055	-0.154
Mof_H 	H 	0.5	0.861	0.2231	0.086
Mof_C 	C 	0.5	0.89895	0.2044	0.061
Mof_H 	H 	0.5	0.9093	0.2215	0.024
Mof_O 	O 	-1.28048e-32	0.45789	0.84618	-0.416
Mof_O 	O 	1.09809e-32	0.45805	0.79804	-0.41
Mof_C 	C 	1.10726e-32	0.44612	0.8225	0.371
Mof_C 	C 	1.107e-32	0.41407	0.8218	-0.107
Mof_C 	C 	1.1166e-32	0.39829	0.8474	-0.001
Mof_H 	H 	3.24248e-33	0.408	0.8648	0.05
Mof_C 	C 	-1.2801e-32	0.36921	0.8472	-0.028
Mof_C 	C 	3.07526e-33	0.35474	0.8202	0.104
Mof_C 	C 	2.9789e-33	0.3704	0.7945	-0.154
Mof_H 	H 	2.91291e-33	0.361	0.7769	0.086
Mof_C 	C 	1.09718e-32	0.39895	0.7956	0.061
Mof_H 	H 	2.91891e-33	0.4093	0.7785	0.024
Mof_O 	O 	1.29797e-33	0.95789	0.34618	-0.415
Mof_O 	O 	9.10621e-33	0.95805	0.29804	-0.409
Mof_C 	C 	2.1181e-32	0.94612	0.3225	0.371
Mof_C 	C 	5.20093e-33	0.91407	0.3218	-0.106
Mof_C 	C 	9.29128e-33	0.89829	0.3474	-0.001
Mof_H 	H 	5.36215e-33	0.908	0.3648	0.05
Mof_C 	C 	9.29053e-33	0.86921	0.3472	-0.028
Mof_C 	C 	5.19493e-33	0.85474	0.3202	0.104
Mof_C 	C 	9.09294e-33	0.8704	0.2945	-0.154
Mof_H 	H 	1.10241e-32	0.861	0.2769	0.086
Mof_C 	C 	5.10269e-33	0.89895	0.2956	0.061
Mof_H 	H 	2.30132e-32	0.9093	0.2785	0.024
Mof_O 	O 	0.5	0.45789	0.34618	-0.415
Mof_O 	O 	0.5	0.45805	0.29804	-0.41
Mof_C 	C 	0.5	0.44612	0.3225	0.371
Mof_C 	C 	0.5	0.41407	0.3218	-0.107
Mof_C 	C 	0.5	0.39829	0.3474	-0
Mof_H 	H 	0.5	0.408	0.3648	0.05
Mof_C 	C 	0.5	0.36921	0.3472	-0.028
Mof_C 	C 	0.5	0.35474	0.3202	0.105
Mof_C 	C 	0.5	0.3704	0.2945	-0.154
Mof_H 	H 	0.5	0.361	0.2769	0.086
Mof_C 	C 	0.5	0.39895	0.2956	0.061
Mof_H 	H 	0.5	0.4093	0.2785	0.024
Mof_O 	O 	0.5	0.95789	0.84618	-0.414
Mof_O 	O 	0.5	0.95805	0.79804	-0.409
Mof_C 	C 	0.5	0.94612	0.8225	0.371
Mof_C 	C 	0.5	0.91407	0.8218	-0.106
Mof_C 	C 	0.5	0.89829	0.8474	-0.001
Mof_H 	H 	0.5	0.908	0.8648	0.05
Mof_C 	C 	0.5	0.86921	0.8472	-0.027
Mof_C 	C 	0.5	0.85474	0.8202	0.105
Mof_C 	C 	0.5	0.8704	0.7945	-0.154
Mof_H 	H 	0.5	0.861	0.7769	0.086
Mof_C 	C 	0.5	0.89895	0.7956	0.061
Mof_H 	H 	0.5	0.9093	0.7785	0.024
Mof_O 	O 	-4.81607e-33	0.54211	0.84618	-0.416
Mof_O 	O 	1.09809e-32	0.54195	0.79804	-0.41
Mof_C 	C 	-4.90486e-33	0.55388	0.8225	0.371
Mof_C 	C 	3.08126e-33	0.58593	0.8218	-0.107
Mof_C 	C 	-4.8115e-33	0.60171	0.8474	-0.001
Mof_H 	H 	-4.74626e-33	0.592	0.8648	0.05
Mof_C 	C 	-4.81225e-33	0.63079	0.8472	-0.028
Mof_C 	C 	1.1064e-32	0.64526	0.8202	0.104
Mof_C 	C 	-1.29986e-32	0.6296	0.7945	-0.154
Mof_H 	H 	2.91291e-33	0.639	0.7769	0.086
Mof_C 	C 	1.89605e-32	0.60105	0.7956	0.061
Mof_H 	H 	1.09076e-32	0.5907	0.7785	0.024
Mof_O 	O 	1.29797e-33	0.04211	0.34618	-0.416
Mof_O 	O 	5.11184e-33	0.04195	0.29804	-0.41
Mof_C 	C 	9.19792e-33	0.05388	0.3225	0.371
Mof_C 	C 	1.20656e-33	0.08593	0.3218	-0.107
Mof_C 	C 	1.30254e-33	0.10171	0.3474	-0
Mof_H 	H 	1.36778e-33	0.092	0.3648	0.05
Mof_C 	C 	5.29616e-33	0.13079	0.3472	-0.028
Mof_C 	C 	1.20056e-33	0.14526	0.3202	0.104
Mof_C 	C 	5.09857e-33	0.1296	0.2945	-0.154
Mof_H 	H 	-9.58976e-34	0.139	0.2769	0.086
Mof_C 	C 	-2.88605e-33	0.10105	0.2956	0.061
Mof_H 	H 	5.03858e-33	0.0907	0.2785	0.023
Mof_O 	O 	0.5	0.54211	0.34618	-0.415
Mof_O 	O 	0.5	0.54195	0.29804	-0.41
Mof_C 	C 	0.5	0.55388	0.3225	0.371
Mof_C 	C 	0.5	0.58593	0.3218	-0.107
Mof_C 	C 	0.5	0.60171	0.3474	-0.001
Mof_H 	H 	0.5	0.592	0.3648	0.05
Mof_C 	C 	0.5	0.63079	0.3472	-0.028
Mof_C 	C 	0.5	0.64526	0.3202	0.105
Mof_C 	C 	0.5	0.6296	0.2945	-0.154
Mof_H 	H 	0.5	0.639	0.2769	0.086
Mof_C 	C 	0.5	0.60105	0.2956	0.061
Mof_H 	H 	0.5	0.5907	0.2785	0.024
Mof_O 	O 	0.5	0.04211	0.84618	-0.415
Mof_O 	O 	0.5	0.04195	0.79804	-0.41
Mof_C 	C 	0.5	0.05388	0.8225	0.371
Mof_C 	C 	0.5	0.08593	0.8218	-0.107
Mof_C 	C 	0.5	0.10171	0.8474	-0
Mof_H 	H 	0.5	0.092	0.8648	0.05
Mof_C 	C 	0.5	0.13079	0.8472	-0.028
Mof_C 	C 	0.5	0.14526	0.8202	0.105
Mof_C 	C 	0.5	0.1296	0.7945	-0.154
Mof_H 	H 	0.5	0.139	0.7769	0.086
Mof_C 	C 	0.5	0.10105	0.7956	0.061
Mof_H 	H 	0.5	0.0907	0.7785	0.024
Mof_O 	O 	0.54211	0.84618	-0	-0.416
Mof_O 	O 	0.54195	0.79804	-0	-0.41
Mof_C 	C 	0.55388	0.8225	-0	0.371
Mof_C 	C 	0.58593	0.8218	-0	-0.107
Mof_C 	C 	0.60171	0.8474	-0	-0.001
Mof_H 	H 	0.592	0.8648	-0	0.05
Mof_C 	C 	0.63079	0.8472	-0	-0.028
Mof_C 	C 	0.64526	0.8202	-0	0.104
Mof_C 	C 	0.6296	0.7945	-0	-0.154
Mof_H 	H 	0.639	0.7769	-0	0.086
Mof_C 	C 	0.60105	0.7956	-0	0.061
Mof_H 	H 	0.5907	0.7785	-0	0.024
Mof_O 	O 	0.54211	0.34618	0.5	-0.415
Mof_O 	O 	0.54195	0.29804	0.5	-0.41
Mof_C 	C 	0.55388	0.3225	0.5	0.371
Mof_C 	C 	0.58593	0.3218	0.5	-0.107
Mof_C 	C 	0.60171	0.3474	0.5	-0.001
Mof_H 	H 	0.592	0.3648	0.5	0.05
Mof_C 	C 	0.63079	0.3472	0.5	-0.028
Mof_C 	C 	0.64526	0.3202	0.5	0.105
Mof_C 	C 	0.6296	0.2945	0.5	-0.154
Mof_H 	H 	0.639	0.2769	0.5	0.086
Mof_C 	C 	0.60105	0.2956	0.5	0.061
Mof_H 	H 	0.5907	0.2785	0.5	0.024
Mof_O 	O 	0.04211	0.84618	0.5	-0.415
Mof_O 	O 	0.04195	0.79804	0.5	-0.41
Mof_C 	C 	0.05388	0.8225	0.5	0.371
Mof_C 	C 	0.08593	0.8218	0.5	-0.107
Mof_C 	C 	0.10171	0.8474	0.5	-0
Mof_H 	H 	0.092	0.8648	0.5	0.05
Mof_C 	C 	0.13079	0.8472	0.5	-0.028
Mof_C 	C 	0.14526	0.8202	0.5	0.105
Mof_C 	C 	0.1296	0.7945	0.5	-0.154
Mof_H 	H 	0.139	0.7769	0.5	0.086
Mof_C 	C 	0.10105	0.7956	0.5	0.061
Mof_H 	H 	0.0907	0.7785	0.5	0.024
Mof_O 	O 	0.04211	0.34618	-0	-0.416
Mof_O 	O 	0.04195	0.29804	-0	-0.41
Mof_C 	C 	0.05388	0.3225	-0	0.371
Mof_C 	C 	0.08593	0.3218	-0	-0.107
Mof_C 	C 	0.10171	0.3474	-0	-0
Mof_H 	H 	0.092	0.3648	-0	0.05
Mof_C 	C 	0.13079	0.3472	-0	-0.028
Mof_C 	C 	0.14526	0.3202	-0	0.104
Mof_C 	C 	0.1296	0.2945	-0	-0.154
Mof_H 	H 	0.139	0.2769	-0	0.086
Mof_C 	C 	0.10105	0.2956	-0	0.061
Mof_H 	H 	0.0907	0.2785	-0	0.023
Mof_O 	O 	0.45789	0.84618	-0	-0.416
Mof_O 	O 	0.45805	0.79804	-0	-0.41
Mof_C 	C 	0.44612	0.8225	-0	0.371
Mof_C 	C 	0.41407	0.8218	-0	-0.107
Mof_C 	C 	0.39829	0.8474	-0	-0.001
Mof_H 	H 	0.408	0.8648	-0	0.05
Mof_C 	C 	0.36921	0.8472	-0	-0.028
Mof_C 	C 	0.35474	0.8202	-0	0.104
Mof_C 	C 	0.3704	0.7945	-0	-0.154
Mof_H 	H 	0.361	0.7769	-0	0.086
Mof_C 	C 	0.39895	0.7956	-0	0.061
Mof_H 	H 	0.4093	0.7785	-0	0.024
Mof_O 	O 	0.45789	0.34618	0.5	-0.415
Mof_O 	O 	0.45805	0.29804	0.5	-0.41
Mof_C 	C 	0.44612	0.3225	0.5	0.371
Mof_C 	C 	0.41407	0.3218	0.5	-0.107
Mof_C 	C 	0.39829	0.3474	0.5	-0
Mof_H 	H 	0.408	0.3648	0.5	0.05
Mof_C 	C 	0.36921	0.3472	0.5	-0.028
Mof_C 	C 	0.35474	0.3202	0.5	0.105
Mof_C 	C 	0.3704	0.2945	0.5	-0.154
Mof_H 	H 	0.361	0.2769	0.5	0.086
Mof_C 	C 	0.39895	0.2956	0.5	0.061
Mof_H 	H 	0.4093	0.2785	0.5	0.024
Mof_O 	O 	0.95789	0.84618	0.5	-0.414
Mof_O 	O 	0.95805	0.79804	0.5	-0.409
Mof_C 	C 	0.94612	0.8225	0.5	0.371
Mof_C 	C 	0.91407	0.8218	0.5	-0.106
Mof_C 	C 	0.89829	0.8474	0.5	-0.001
Mof_H 	H 	0.908	0.8648	0.5	0.05
Mof_C 	C 	0.86921	0.8472	0.5	-0.027
Mof_C 	C 	0.85474	0.8202	0.5	0.105
Mof_C 	C 	0.8704	0.7945	0.5	-0.154
Mof_H 	H 	0.861	0.7769	0.5	0.086
Mof_C 	C 	0.89895	0.7956	0.5	0.061
Mof_H 	H 	0.9093	0.7785	0.5	0.024
Mof_O 	O 	0.95789	0.34618	-0	-0.415
Mof_O 	O 	0.95805	0.29804	-0	-0.409
Mof_C 	C 	0.94612	0.3225	-0	0.371
Mof_C 	C 	0.91407	0.3218	-0	-0.106
Mof_C 	C 	0.89829	0.3474	-0	-0.001
Mof_H 	H 	0.908	0.3648	-0	0.05
Mof_C 	C 	0.86921	0.3472	-0	-0.028
Mof_C 	C 	0.85474	0.3202	-0	0.104
Mof_C 	C 	0.8704	0.2945	-0	-0.154
Mof_H 	H 	0.861	0.2769	-0	0.086
Mof_C 	C 	0.89895	0.2956	-0	0.061
Mof_H 	H 	0.9093	0.2785	-0	0.024
Mof_O 	O 	0.45789	0.15382	-0	-0.416
Mof_O 	O 	0.45805	0.20196	-0	-0.41
Mof_C 	C 	0.44612	0.1775	-0	0.371
Mof_C 	C 	0.41407	0.1782	-0	-0.107
Mof_C 	C 	0.39829	0.1526	-0	-0.001
Mof_H 	H 	0.408	0.1352	-0	0.05
Mof_C 	C 	0.36921	0.1528	-0	-0.028
Mof_C 	C 	0.35474	0.1798	-0	0.104
Mof_C 	C 	0.3704	0.2055	-0	-0.154
Mof_H 	H 	0.361	0.2231	-0	0.086
Mof_C 	C 	0.39895	0.2044	-0	0.061
Mof_H 	H 	0.4093	0.2215	-0	0.024
Mof_O 	O 	0.45789	0.65382	0.5	-0.415
Mof_O 	O 	0.45805	0.70196	0.5	-0.41
Mof_C 	C 	0.44612	0.6775	0.5	0.371
Mof_C 	C 	0.41407	0.6782	0.5	-0.107
Mof_C 	C 	0.39829	0.6526	0.5	-0
Mof_H 	H 	0.408	0.6352	0.5	0.05
Mof_C 	C 	0.36921	0.6528	0.5	-0.028
Mof_C 	C 	0.35474	0.6798	0.5	0.105
Mof_C 	C 	0.3704	0.7055	0.5	-0.154
Mof_H 	H 	0.361	0.7231	0.5	0.086
Mof_C 	C 	0.39895	0.7044	0.5	0.061
Mof_H 	H 	0.4093	0.7215	0.5	0.024
Mof_O 	O 	0.95789	0.15382	0.5	-0.415
Mof_O 	O 	0.95805	0.20196	0.5	-0.409
Mof_C 	C 	0.94612	0.1775	0.5	0.371
Mof_C 	C 	0.91407	0.1782	0.5	-0.106
Mof_C 	C 	0.89829	0.1526	0.5	-0.001
Mof_H 	H 	0.908	0.1352	0.5	0.05
Mof_C 	C 	0.86921	0.1528	0.5	-0.028
Mof_C 	C 	0.85474	0.1798	0.5	0.105
Mof_C 	C 	0.8704	0.2055	0.5	-0.154
Mof_H 	H 	0.861	0.2231	0.5	0.086
Mof_C 	C 	0.89895	0.2044	0.5	0.061
Mof_H 	H 	0.9093	0.2215	0.5	0.024
Mof_O 	O 	0.95789	0.65382	-0	-0.415
Mof_O 	O 	0.95805	0.70196	-0	-0.409
Mof_C 	C 	0.94612	0.6775	-0	0.371
Mof_C 	C 	0.91407	0.6782	-0	-0.106
Mof_C 	C 	0.89829	0.6526	-0	-0.001
Mof_H 	H 	0.908	0.6352	-0	0.05
Mof_C 	C 	0.86921	0.6528	-0	-0.028
Mof_C 	C 	0.85474	0.6798	-0	0.104
Mof_C 	C 	0.8704	0.7055	-0	-0.154
Mof_H 	H 	0.861	0.7231	-0	0.086
Mof_C 	C 	0.89895	0.7044	-0	0.061
Mof_H 	H 	0.9093	0.7215	-0	0.024
Mof_O 	O 	0.54211	0.15382	-0	-0.416
Mof_O 	O 	0.54195	0.20196	-0	-0.41
Mof_C 	C 	0.55388	0.1775	-0	0.371
Mof_C 	C 	0.58593	0.1782	-0	-0.107
Mof_C 	C 	0.60171	0.1526	-0	-0.001
Mof_H 	H 	0.592	0.1352	-0	0.05
Mof_C 	C 	0.63079	0.1528	-0	-0.028
Mof_C 	C 	0.64526	0.1798	-0	0.104
Mof_C 	C 	0.6296	0.2055	-0	-0.154
Mof_H 	H 	0.639	0.2231	-0	0.086
Mof_C 	C 	0.60105	0.2044	-0	0.061
Mof_H 	H 	0.5907	0.2215	-0	0.024
Mof_O 	O 	0.54211	0.65382	0.5	-0.415
Mof_O 	O 	0.54195	0.70196	0.5	-0.41
Mof_C 	C 	0.55388	0.6775	0.5	0.371
Mof_C 	C 	0.58593	0.6782	0.5	-0.107
Mof_C 	C 	0.60171	0.6526	0.5	-0.001
Mof_H 	H 	0.592	0.6352	0.5	0.05
Mof_C 	C 	0.63079	0.6528	0.5	-0.028
Mof_C 	C 	0.64526	0.6798	0.5	0.105
Mof_C 	C 	0.6296	0.7055	0.5	-0.154
Mof_H 	H 	0.639	0.7231	0.5	0.086
Mof_C 	C 	0.60105	0.7044	0.5	0.061
Mof_H 	H 	0.5907	0.7215	0.5	0.024
Mof_O 	O 	0.04211	0.15382	0.5	-0.416
Mof_O 	O 	0.04195	0.20196	0.5	-0.41
Mof_C 	C 	0.05388	0.1775	0.5	0.371
Mof_C 	C 	0.08593	0.1782	0.5	-0.107
Mof_C 	C 	0.10171	0.1526	0.5	-0
Mof_H 	H 	0.092	0.1352	0.5	0.05
Mof_C 	C 	0.13079	0.1528	0.5	-0.028
Mof_C 	C 	0.14526	0.1798	0.5	0.105
Mof_C 	C 	0.1296	0.2055	0.5	-0.154
Mof_H 	H 	0.139	0.2231	0.5	0.086
Mof_C 	C 	0.10105	0.2044	0.5	0.061
Mof_H 	H 	0.0907	0.2215	0.5	0.024
Mof_O 	O 	0.04211	0.65382	-0	-0.416
Mof_O 	O 	0.04195	0.70196	-0	-0.41
Mof_C 	C 	0.05388	0.6775	-0	0.371
Mof_C 	C 	0.08593	0.6782	-0	-0.107
Mof_C 	C 	0.10171	0.6526	-0	-0
Mof_H 	H 	0.092	0.6352	-0	0.05
Mof_C 	C 	0.13079	0.6528	-0	-0.028
Mof_C 	C 	0.14526	0.6798	-0	0.104
Mof_C 	C 	0.1296	0.7055	-0	-0.154
Mof_H 	H 	0.139	0.7231	-0	0.086
Mof_C 	C 	0.10105	0.7044	-0	0.061
Mof_H 	H 	0.0907	0.7215	-0	0.024
Mof_O 	O 	0.84618	3.99437e-33	0.45789	-0.416
Mof_O 	O 	0.79804	3.99437e-33	0.45805	-0.41
Mof_C 	C 	0.8225	3.99437e-33	0.44612	0.371
Mof_C 	C 	0.8218	3.99437e-33	0.41407	-0.107
Mof_C 	C 	0.8474	3.99437e-33	0.39829	-0.001
Mof_H 	H 	0.8648	0	0.408	0.05
Mof_C 	C 	0.8472	3.99437e-33	0.36921	-0.028
Mof_C 	C 	0.8202	0	0.35474	0.104
Mof_C 	C 	0.7945	0	0.3704	-0.154
Mof_H 	H 	0.7769	0	0.361	0.086
Mof_C 	C 	0.7956	3.99437e-33	0.39895	0.061
Mof_H 	H 	0.7785	0	0.4093	0.024
Mof_O 	O 	0.84618	0.5	0.95789	-0.414
Mof_O 	O 	0.79804	0.5	0.95805	-0.409
Mof_C 	C 	0.8225	0.5	0.94612	0.371
Mof_C 	C 	0.8218	0.5	0.91407	-0.106
Mof_C 	C 	0.8474	0.5	0.89829	-0.001
Mof_H 	H 	0.8648	0.5	0.908	0.05
Mof_C 	C 	0.8472	0.5	0.86921	-0.027
Mof_C 	C 	0.8202	0.5	0.85474	0.105
Mof_C 	C 	0.7945	0.5	0.8704	-0.154
Mof_H 	H 	0.7769	0.5	0.861	0.086
Mof_C 	C 	0.7956	0.5	0.89895	0.061
Mof_H 	H 	0.7785	0.5	0.9093	0.024
Mof_O 	O 	0.34618	7.98874e-33	0.95789	-0.415
Mof_O 	O 	0.29804	0	0.95805	-0.409
Mof_C 	C 	0.3225	0	0.94612	0.371
Mof_C 	C 	0.3218	0	0.91407	-0.106
Mof_C 	C 	0.3474	7.98874e-33	0.89829	-0.001
Mof_H 	H 	0.3648	7.98874e-33	0.908	0.05
Mof_C 	C 	0.3472	0	0.86921	-0.028
Mof_C 	C 	0.3202	0	0.85474	0.104
Mof_C 	C 	0.2945	0	0.8704	-0.154
Mof_H 	H 	0.2769	7.98874e-33	0.861	0.086
Mof_C 	C 	0.2956	7.98874e-33	0.89895	0.061
Mof_H 	H 	0.2785	0	0.9093	0.024
Mof_O 	O 	0.34618	0.5	0.45789	-0.415
Mof_O 	O 	0.29804	0.5	0.45805	-0.41
Mof_C 	C 	0.3225	0.5	0.44612	0.371
Mof_C 	C 	0.3218	0.5	0.41407	-0.107
Mof_C 	C 	0.3474	0.5	0.39829	-0
Mof_H 	H 	0.3648	0.5	0.408	0.05
Mof_C 	C 	0.3472	0.5	0.36921	-0.028
Mof_C 	C 	0.3202	0.5	0.35474	0.105
Mof_C 	C 	0.2945	0.5	0.3704	-0.154
Mof_H 	H 	0.2769	0.5	0.361	0.086
Mof_C 	C 	0.2956	0.5	0.39895	0.061
Mof_H 	H 	0.2785	0.5	0.4093	0.024
Mof_O 	O 	0.84618	0	0.54211	-0.416
Mof_O 	O 	0.79804	0	0.54195	-0.41
Mof_C 	C 	0.8225	0	0.55388	0.371
Mof_C 	C 	0.8218	3.99437e-33	0.58593	-0.107
Mof_C 	C 	0.8474	0	0.60171	-0.001
Mof_H 	H 	0.8648	0	0.592	0.05
Mof_C 	C 	0.8472	0	0.63079	-0.028
Mof_C 	C 	0.8202	7.98874e-33	0.64526	0.104
Mof_C 	C 	0.7945	0	0.6296	-0.154
Mof_H 	H 	0.7769	0	0.639	0.086
Mof_C 	C 	0.7956	-7.98874e-33	0.60105	0.061
Mof_H 	H 	0.7785	0	0.5907	0.024
Mof_O 	O 	0.84618	0.5	0.04211	-0.415
Mof_O 	O 	0.79804	0.5	0.04195	-0.41
Mof_C 	C 	0.8225	0.5	0.05388	0.371
Mof_C 	C 	0.8218	0.5	0.08593	-0.107
Mof_C 	C 	0.8474	0.5	0.10171	-0
Mof_H 	H 	0.8648	0.5	0.092	0.05
Mof_C 	C 	0.8472	0.5	0.13079	-0.028
Mof_C 	C 	0.8202	0.5	0.14526	0.105
Mof_C 	C 	0.7945	0.5	0.1296	-0.154
Mof_H 	H 	0.7769	0.5	0.139	0.086
Mof_C 	C 	0.7956	0.5	0.10105	0.061
Mof_H 	H 	0.7785	0.5	0.0907	0.024
Mof_O 	O 	0.34618	0	0.04211	-0.416
Mof_O 	O 	0.29804	0	0.04195	-0.41
Mof_C 	C 	0.3225	-4.99296e-34	0.05388	0.371
Mof_C 	C 	0.3218	0	0.08593	-0.107
Mof_C 	C 	0.3474	9.98592e-34	0.10171	-0
Mof_H 	H 	0.3648	9.98592e-34	0.092	0.05
Mof_C 	C 	0.3472	0	0.13079	-0.028
Mof_C 	C 	0.3202	0	0.14526	0.104
Mof_C 	C 	0.2945	0	0.1296	-0.154
Mof_H 	H 	0.2769	0	0.139	0.086
Mof_C 	C 	0.2956	9.98592e-34	0.10105	0.061
Mof_H 	H 	0.2785	9.98592e-34	0.0907	0.023
Mof_O 	O 	0.34618	0.5	0.54211	-0.415
Mof_O 	O 	0.29804	0.5	0.54195	-0.41
Mof_C 	C 	0.3225	0.5	0.55388	0.371
Mof_C 	C 	0.3218	0.5	0.58593	-0.107
Mof_C 	C 	0.3474	0.5	0.60171	-0
Mof_H 	H 	0.3648	0.5	0.592	0.05
Mof_C 	C 	0.3472	0.5	0.63079	-0.028
Mof_C 	C 	0.3202	0.5	0.64526	0.105
Mof_C 	C 	0.2945	0.5	0.6296	-0.154
Mof_H 	H 	0.2769	0.5	0.639	0.086
Mof_C 	C 	0.2956	0.5	0.60105	0.061
Mof_H 	H 	0.2785	0.5	0.5907	0.024
Mof_O 	O 	0.15382	0	0.54211	-0.416
Mof_O 	O 	0.20196	0	0.54195	-0.41
Mof_C 	C 	0.1775	0	0.55388	0.371
Mof_C 	C 	0.1782	3.99437e-33	0.58593	-0.107
Mof_C 	C 	0.1526	0	0.60171	-0.001
Mof_H 	H 	0.1352	0	0.592	0.05
Mof_C 	C 	0.1528	0	0.63079	-0.028
Mof_C 	C 	0.1798	7.98874e-33	0.64526	0.104
Mof_C 	C 	0.2055	0	0.6296	-0.154
Mof_H 	H 	0.2231	0	0.639	0.086
Mof_C 	C 	0.2044	-7.98874e-33	0.60105	0.061
Mof_H 	H 	0.2215	0	0.5907	0.024
Mof_O 	O 	0.15382	0.5	0.04211	-0.416
Mof_O 	O 	0.20196	0.5	0.04195	-0.41
Mof_C 	C 	0.1775	0.5	0.05388	0.371
Mof_C 	C 	0.1782	0.5	0.08593	-0.107
Mof_C 	C 	0.1526	0.5	0.10171	-0
Mof_H 	H 	0.1352	0.5	0.092	0.05
Mof_C 	C 	0.1528	0.5	0.13079	-0.028
Mof_C 	C 	0.1798	0.5	0.14526	0.105
Mof_C 	C 	0.2055	0.5	0.1296	-0.154
Mof_H 	H 	0.2231	0.5	0.139	0.086
Mof_C 	C 	0.2044	0.5	0.10105	0.061
Mof_H 	H 	0.2215	0.5	0.0907	0.024
Mof_O 	O 	0.65382	0	0.04211	-0.416
Mof_O 	O 	0.70196	0	0.04195	-0.41
Mof_C 	C 	0.6775	-4.99296e-34	0.05388	0.371
Mof_C 	C 	0.6782	0	0.08593	-0.107
Mof_C 	C 	0.6526	9.98592e-34	0.10171	-0
Mof_H 	H 	0.6352	9.98592e-34	0.092	0.05
Mof_C 	C 	0.6528	0	0.13079	-0.028
Mof_C 	C 	0.6798	0	0.14526	0.104
Mof_C 	C 	0.7055	0	0.1296	-0.154
Mof_H 	H 	0.7231	0	0.139	0.086
Mof_C 	C 	0.7044	9.98592e-34	0.10105	0.061
Mof_H 	H 	0.7215	9.98592e-34	0.0907	0.024
Mof_O 	O 	0.65382	0.5	0.54211	-0.415
Mof_O 	O 	0.70196	0.5	0.54195	-0.41
Mof_C 	C 	0.6775	0.5	0.55388	0.371
Mof_C 	C 	0.6782	0.5	0.58593	-0.107
Mof_C 	C 	0.6526	0.5	0.60171	-0
Mof_H 	H 	0.6352	0.5	0.592	0.05
Mof_C 	C 	0.6528	0.5	0.63079	-0.028
Mof_C 	C 	0.6798	0.5	0.64526	0.105
Mof_C 	C 	0.7055	0.5	0.6296	-0.154
Mof_H 	H 	0.7231	0.5	0.639	0.086
Mof_C 	C 	0.7044	0.5	0.60105	0.061
Mof_H 	H 	0.7215	0.5	0.5907	0.024
Mof_O 	O 	0.15382	3.99437e-33	0.45789	-0.416
Mof_O 	O 	0.20196	3.99437e-33	0.45805	-0.41
Mof_C 	C 	0.1775	3.99437e-33	0.44612	0.371
Mof_C 	C 	0.1782	3.99437e-33	0.41407	-0.107
Mof_C 	C 	0.1526	3.99437e-33	0.39829	-0.001
Mof_H 	H 	0.1352	0	0.408	0.05
Mof_C 	C 	0.1528	3.99437e-33	0.36921	-0.028
Mof_C 	C 	0.1798	0	0.35474	0.104
Mof_C 	C 	0.2055	0	0.3704	-0.154
Mof_H 	H 	0.2231	0	0.361	0.086
Mof_C 	C 	0.2044	3.99437e-33	0.39895	0.061
Mof_H 	H 	0.2215	0	0.4093	0.024
Mof_O 	O 	0.15382	0.5	0.95789	-0.415
Mof_O 	O 	0.20196	0.5	0.95805	-0.409
Mof_C 	C 	0.1775	0.5	0.94612	0.371
Mof_C 	C 	0.1782	0.5	0.91407	-0.106
Mof_C 	C 	0.1526	0.5	0.89829	-0.001
Mof_H 	H 	0.1352	0.5	0.908	0.05
Mof_C 	C 	0.1528	0.5	0.86921	-0.028
Mof_C 	C 	0.1798	0.5	0.85474	0.105
Mof_C 	C 	0.2055	0.5	0.8704	-0.154
Mof_H 	H 	0.2231	0.5	0.861	0.086
Mof_C 	C 	0.2044	0.5	0.89895	0.061
Mof_H 	H 	0.2215	0.5	0.9093	0.024
Mof_O 	O 	0.65382	7.98874e-33	0.95789	-0.415
Mof_O 	O 	0.70196	0	0.95805	-0.409
Mof_C 	C 	0.6775	0	0.94612	0.371
Mof_C 	C 	0.6782	0	0.91407	-0.106
Mof_C 	C 	0.6526	7.98874e-33	0.89829	-0.001
Mof_H 	H 	0.6352	7.98874e-33	0.908	0.05
Mof_C 	C 	0.6528	0	0.86921	-0.028
Mof_C 	C 	0.6798	0	0.85474	0.104
Mof_C 	C 	0.7055	0	0.8704	-0.154
Mof_H 	H 	0.7231	7.98874e-33	0.861	0.086
Mof_C 	C 	0.7044	7.98874e-33	0.89895	0.061
Mof_H 	H 	0.7215	0	0.9093	0.024
Mof_O 	O 	0.65382	0.5	0.45789	-0.415
Mof_O 	O 	0.70196	0.5	0.45805	-0.41
Mof_C 	C 	0.6775	0.5	0.44612	0.371
Mof_C 	C 	0.6782	0.5	0.41407	-0.107
Mof_C 	C 	0.6526	0.5	0.39829	-0
Mof_H 	H 	0.6352	0.5	0.408	0.05
Mof_C 	C 	0.6528	0.5	0.36921	-0.028
Mof_C 	C 	0.6798	0.5	0.35474	0.105
Mof_C 	C 	0.7055	0.5	0.3704	-0.154
Mof_H 	H 	0.7231	0.5	0.361	0.086
Mof_C 	C 	0.7044	0.5	0.39895	0.061
Mof_H 	H 	0.7215	0.5	0.4093	0.024
Mof_N 	N 	0.67452	0	0.82549	-0.162
Mof_C 	C 	0.69679	7.98874e-33	0.80321	0.122
Mof_C 	C 	0.7384	0	0.7616	-0
Mof_N 	N 	0.67452	0.5	0.32549	-0.163
Mof_C 	C 	0.69679	0.5	0.30321	0.124
Mof_C 	C 	0.7384	0.5	0.2616	0.002
Mof_N 	N 	0.32549	0	0.82549	-0.162
Mof_C 	C 	0.30321	7.98874e-33	0.80321	0.122
Mof_C 	C 	0.2616	0	0.7616	-0
Mof_N 	N 	0.32549	0.5	0.32549	-0.163
Mof_C 	C 	0.30321	0.5	0.30321	0.124
Mof_C 	C 	0.2616	0.5	0.2616	0.002
Mof_N 	N 	0.32549	-1.99718e-33	0.17451	-0.162
Mof_C 	C 	0.30321	0	0.19679	0.122
Mof_C 	C 	0.2616	1.99718e-33	0.2384	-0
Mof_N 	N 	0.32549	0.5	0.67451	-0.163
Mof_C 	C 	0.30321	0.5	0.69679	0.124
Mof_C 	C 	0.2616	0.5	0.7384	0.002
Mof_N 	N 	0.67452	-1.99718e-33	0.17451	-0.162
Mof_C 	C 	0.69679	0	0.19679	0.122
Mof_C 	C 	0.7384	1.99718e-33	0.2384	-0
Mof_N 	N 	0.67452	0.5	0.67451	-0.163
Mof_C 	C 	0.69679	0.5	0.69679	0.124
Mof_C 	C 	0.7384	0.5	0.7384	0.002
Mof_N 	N 	0.82549	0.67452	-0	-0.162
Mof_C 	C 	0.80321	0.69679	-0	0.122
Mof_C 	C 	0.7616	0.7384	-0	-0
Mof_N 	N 	0.82549	0.17452	0.5	-0.163
Mof_C 	C 	0.80321	0.19679	0.5	0.124
Mof_C 	C 	0.7616	0.2384	0.5	0.001
Mof_N 	N 	0.82549	0.32549	-0	-0.162
Mof_C 	C 	0.80321	0.30321	-0	0.122
Mof_C 	C 	0.7616	0.2616	-0	-0
Mof_N 	N 	0.82549	0.82549	0.5	-0.163
Mof_C 	C 	0.80321	0.80321	0.5	0.124
Mof_C 	C 	0.7616	0.7616	0.5	0.001
Mof_N 	N 	0.17451	0.32549	-0	-0.162
Mof_C 	C 	0.19679	0.30321	-0	0.122
Mof_C 	C 	0.2384	0.2616	-0	-0
Mof_N 	N 	0.17451	0.82549	0.5	-0.163
Mof_C 	C 	0.19679	0.80321	0.5	0.124
Mof_C 	C 	0.2384	0.7616	0.5	0.001
Mof_N 	N 	0.17451	0.67452	-0	-0.162
Mof_C 	C 	0.19679	0.69679	-0	0.122
Mof_C 	C 	0.2384	0.7384	-0	-0
Mof_N 	N 	0.17451	0.17452	0.5	-0.163
Mof_C 	C 	0.19679	0.19679	0.5	0.124
Mof_C 	C 	0.2384	0.2384	0.5	0.001
Mof_N 	N 	2.52904e-33	0.82549	0.67452	-0.162
Mof_C 	C 	1.06013e-32	0.80321	0.69679	0.122
Mof_C 	C 	1.07573e-32	0.7616	0.7384	-0
Mof_N 	N 	0.5	0.82549	0.17452	-0.163
Mof_C 	C 	0.5	0.80321	0.19679	0.124
Mof_C 	C 	0.5	0.7616	0.2384	0.001
Mof_N 	N 	-6.76835e-33	0.82549	0.32549	-0.162
Mof_C 	C 	1.71143e-32	0.80321	0.30321	0.122
Mof_C 	C 	4.97521e-33	0.7616	0.2616	-0
Mof_N 	N 	0.5	0.82549	0.82549	-0.163
Mof_C 	C 	0.5	0.80321	0.80321	0.124
Mof_C 	C 	0.5	0.7616	0.7616	0.001
Mof_N 	N 	1.22039e-33	0.17451	0.32549	-0.162
Mof_C 	C 	1.13686e-33	0.19679	0.30321	0.122
Mof_C 	C 	4.97521e-33	0.2384	0.2616	-0
Mof_N 	N 	0.5	0.17451	0.82549	-0.163
Mof_C 	C 	0.5	0.19679	0.80321	0.124
Mof_C 	C 	0.5	0.2384	0.7616	0.001
Mof_N 	N 	2.52904e-33	0.17451	0.67452	-0.162
Mof_C 	C 	1.06013e-32	0.19679	0.69679	0.122
Mof_C 	C 	2.76856e-33	0.2384	0.7384	-0
Mof_N 	N 	0.5	0.17451	0.17452	-0.163
Mof_C 	C 	0.5	0.19679	0.19679	0.124
Mof_C 	C 	0.5	0.2384	0.2384	0.001
Mof_N 	N 	6.64586e-33	0.67452	0.17451	-0.162
Mof_C 	C 	1.07238e-32	0.69679	0.19679	0.122
Mof_C 	C 	4.88823e-33	0.7384	0.2384	-0
Mof_N 	N 	0.5	0.67452	0.67451	-0.163
Mof_C 	C 	0.5	0.69679	0.69679	0.124
Mof_C 	C 	0.5	0.7384	0.7384	0.002
Mof_N 	N 	2.65149e-33	0.32549	0.17451	-0.162
Mof_C 	C 	2.73503e-33	0.30321	0.19679	0.122
Mof_C 	C 	4.88823e-33	0.2616	0.2384	-0
Mof_N 	N 	0.5	0.32549	0.67451	-0.163
Mof_C 	C 	0.5	0.30321	0.69679	0.124
Mof_C 	C 	0.5	0.2616	0.7384	0.002
Mof_N 	N 	-4.89365e-33	0.32549	0.82549	-0.162
Mof_C 	C 	1.8989e-32	0.30321	0.80321	0.122
Mof_C 	C 	2.85554e-33	0.2616	0.7616	-0
Mof_N 	N 	0.5	0.32549	0.32549	-0.163
Mof_C 	C 	0.5	0.30321	0.30321	0.124
Mof_C 	C 	0.5	0.2616	0.2616	0.002
Mof_N 	N 	-4.89365e-33	0.67452	0.82549	-0.162
Mof_C 	C 	1.10003e-32	0.69679	0.80321	0.122
Mof_C 	C 	1.08443e-32	0.7384	0.7616	-0
Mof_N 	N 	0.5	0.67452	0.32549	-0.163
Mof_C 	C 	0.5	0.69679	0.30321	0.124
Mof_C 	C 	0.5	0.7384	0.2616	0.002
Mof_N 	N 	0.67452	0.82549	-0	-0.162
Mof_C 	C 	0.69679	0.80321	-0	0.122
Mof_C 	C 	0.7384	0.7616	-0	-0
Mof_N 	N 	0.67452	0.32549	0.5	-0.163
Mof_C 	C 	0.69679	0.30321	0.5	0.124
Mof_C 	C 	0.7384	0.2616	0.5	0.002
Mof_N 	N 	0.32549	0.82549	-0	-0.162
Mof_C 	C 	0.30321	0.80321	-0	0.122
Mof_C 	C 	0.2616	0.7616	-0	-0
Mof_N 	N 	0.32549	0.32549	0.5	-0.163
Mof_C 	C 	0.30321	0.30321	0.5	0.124
Mof_C 	C 	0.2616	0.2616	0.5	0.002
Mof_N 	N 	0.32549	0.17451	-0	-0.162
Mof_C 	C 	0.30321	0.19679	-0	0.122
Mof_C 	C 	0.2616	0.2384	-0	-0
Mof_N 	N 	0.32549	0.67451	0.5	-0.163
Mof_C 	C 	0.30321	0.69679	0.5	0.124
Mof_C 	C 	0.2616	0.7384	0.5	0.002
Mof_N 	N 	0.67452	0.17451	-0	-0.162
Mof_C 	C 	0.69679	0.19679	-0	0.122
Mof_C 	C 	0.7384	0.2384	-0	-0
Mof_N 	N 	0.67452	0.67451	0.5	-0.163
Mof_C 	C 	0.69679	0.69679	0.5	0.124
Mof_C 	C 	0.7384	0.7384	0.5	0.002
Mof_N 	N 	0.82549	0	0.32549	-0.162
Mof_C 	C 	0.80321	0	0.30321	0.122
Mof_C 	C 	0.7616	0	0.2616	-0
Mof_N 	N 	0.82549	0.5	0.82549	-0.163
Mof_C 	C 	0.80321	0.5	0.80321	0.124
Mof_C 	C 	0.7616	0.5	0.7616	0.001
Mof_N 	N 	0.82549	7.98874e-33	0.67452	-0.162
Mof_C 	C 	0.80321	0	0.69679	0.122
Mof_C 	C 	0.7616	7.98874e-33	0.7384	-0
Mof_N 	N 	0.82549	0.5	0.17452	-0.163
Mof_C 	C 	0.80321	0.5	0.19679	0.124
Mof_C 	C 	0.7616	0.5	0.2384	0.001
Mof_N 	N 	0.17451	7.98874e-33	0.67452	-0.162
Mof_C 	C 	0.19679	0	0.69679	0.122
Mof_C 	C 	0.2384	7.98874e-33	0.7384	-0
Mof_N 	N 	0.17451	0.5	0.17452	-0.163
Mof_C 	C 	0.19679	0.5	0.19679	0.124
Mof_C 	C 	0.2384	0.5	0.2384	0.001
Mof_N 	N 	0.17451	0	0.32549	-0.162
Mof_C 	C 	0.19679	0	0.30321	0.122
Mof_C 	C 	0.2384	0	0.2616	-0
Mof_N 	N 	0.17451	0.5	0.82549	-0.163
Mof_C 	C 	0.19679	0.5	0.80321	0.124
Mof_C 	C 	0.2384	0.5	0.7616	0.001
_end
