# CIF file generated by openbabel 2.4.1, see http://openbabel.sf.net
data_I
_chemical_name_common 'image0'
_cell_length_a 46.15
_cell_length_b 46.15
_cell_length_c 46.15
_cell_angle_alpha 90
_cell_angle_beta 90
_cell_angle_gamma 90
_space_group_name_H-M_alt 'P 1'
_space_group_name_Hall 'P 1'
loop_
    _symmetry_equiv_pos_as_xyz
    x,y,z
loop_
    _atom_site_label
    _atom_site_type_symbol
    _atom_site_fract_x
    _atom_site_fract_y
    _atom_site_fract_z
    _atom_site_occupancy
    O1      O    0.97008   0.10459   0.14617   1.000
    C1      C    0.95922   0.11553   0.16932   1.000
    C2      C    0.93723   0.10069   0.18362   1.000
    C3      C    0.92640   0.11060   0.21180   1.000
    C4      C    0.01390   0.24340   0.21360   1.000
    C5      C    0.02310   0.21330   0.20010   1.000
    O2      O    0.96974   0.13868   0.18039   1.000
    C6      C    0.00860   0.22340   0.19100   1.000
    O3      O    0.97008   0.60459   0.64617   1.000
    C7      C    0.95922   0.61553   0.66932   1.000
    C8      C    0.93723   0.60069   0.68362   1.000
    C9      C    0.92640   0.61060   0.71180   1.000
    C10     C    0.01390   0.74340   0.71360   1.000
    C11     C    0.02310   0.71330   0.70010   1.000
    O4      O    0.96974   0.63868   0.68039   1.000
    C12     C    0.00860   0.72340   0.69100   1.000
    O5      O    0.47008   0.10459   0.64617   1.000
    C13     C    0.45922   0.11553   0.66932   1.000
    C14     C    0.43723   0.10069   0.68362   1.000
    C15     C    0.42640   0.11060   0.71180   1.000
    C16     C    0.51390   0.24340   0.71360   1.000
    C17     C    0.52310   0.21330   0.70010   1.000
    O6      O    0.46974   0.13868   0.68039   1.000
    C18     C    0.50860   0.22340   0.69100   1.000
    O7      O    0.47008   0.60459   0.14617   1.000
    C19     C    0.45922   0.61553   0.16932   1.000
    C20     C    0.43723   0.60069   0.18362   1.000
    C21     C    0.42640   0.61060   0.21180   1.000
    C22     C    0.51390   0.74340   0.21360   1.000
    C23     C    0.52310   0.71330   0.20010   1.000
    O8      O    0.46974   0.63868   0.18039   1.000
    C24     C    0.50860   0.72340   0.19100   1.000
    O9      O    0.02992   0.89541   0.14617   1.000
    C25     C    0.04078   0.88447   0.16932   1.000
    C26     C    0.06277   0.89931   0.18362   1.000
    C27     C    0.07360   0.88940   0.21180   1.000
    C28     C    0.98610   0.75660   0.21360   1.000
    C29     C    0.97690   0.78670   0.20010   1.000
    O10     O    0.03026   0.86132   0.18039   1.000
    C30     C    0.99140   0.77660   0.19100   1.000
    O11     O    0.02992   0.39541   0.64617   1.000
    C31     C    0.04078   0.38447   0.66932   1.000
    C32     C    0.06277   0.39931   0.68362   1.000
    C33     C    0.07360   0.38940   0.71180   1.000
    C34     C    0.98610   0.25660   0.71360   1.000
    C35     C    0.97690   0.28670   0.70010   1.000
    O12     O    0.03026   0.36132   0.68039   1.000
    C36     C    0.99140   0.27660   0.69100   1.000
    O13     O    0.52992   0.89541   0.64617   1.000
    C37     C    0.54078   0.88447   0.66932   1.000
    C38     C    0.56277   0.89931   0.68362   1.000
    C39     C    0.57360   0.88940   0.71180   1.000
    C40     C    0.48610   0.75660   0.71360   1.000
    C41     C    0.47690   0.78670   0.70010   1.000
    O14     O    0.53026   0.86132   0.68039   1.000
    C42     C    0.49140   0.77660   0.69100   1.000
    O15     O    0.52992   0.39541   0.14617   1.000
    C43     C    0.54078   0.38447   0.16932   1.000
    C44     C    0.56277   0.39931   0.18362   1.000
    C45     C    0.57360   0.38940   0.21180   1.000
    C46     C    0.48610   0.25660   0.21360   1.000
    C47     C    0.47690   0.28670   0.20010   1.000
    O16     O    0.53026   0.36132   0.18039   1.000
    C48     C    0.49140   0.27660   0.19100   1.000
    O17     O    0.02992   0.10459   0.85383   1.000
    C49     C    0.04078   0.11553   0.83068   1.000
    C50     C    0.06277   0.10069   0.81638   1.000
    C51     C    0.07360   0.11060   0.78820   1.000
    C52     C    0.98610   0.24340   0.78640   1.000
    C53     C    0.97690   0.21330   0.79990   1.000
    O18     O    0.03026   0.13868   0.81961   1.000
    C54     C    0.99140   0.22340   0.80900   1.000
    O19     O    0.02992   0.60459   0.35383   1.000
    C55     C    0.04078   0.61553   0.33068   1.000
    C56     C    0.06277   0.60069   0.31638   1.000
    C57     C    0.07360   0.61060   0.28820   1.000
    C58     C    0.98610   0.74340   0.28640   1.000
    C59     C    0.97690   0.71330   0.29990   1.000
    O20     O    0.03026   0.63868   0.31961   1.000
    C60     C    0.99140   0.72340   0.30900   1.000
    O21     O    0.52992   0.10459   0.35383   1.000
    C61     C    0.54078   0.11553   0.33068   1.000
    C62     C    0.56277   0.10069   0.31638   1.000
    C63     C    0.57360   0.11060   0.28820   1.000
    C64     C    0.48610   0.24340   0.28640   1.000
    C65     C    0.47690   0.21330   0.29990   1.000
    O22     O    0.53026   0.13868   0.31961   1.000
    C66     C    0.49140   0.22340   0.30900   1.000
    O23     O    0.52992   0.60459   0.85383   1.000
    C67     C    0.54078   0.61553   0.83068   1.000
    C68     C    0.56277   0.60069   0.81638   1.000
    C69     C    0.57360   0.61060   0.78820   1.000
    C70     C    0.48610   0.74340   0.78640   1.000
    C71     C    0.47690   0.71330   0.79990   1.000
    O24     O    0.53026   0.63868   0.81961   1.000
    C72     C    0.49140   0.72340   0.80900   1.000
    O25     O    0.97008   0.89541   0.85383   1.000
    C73     C    0.95922   0.88447   0.83068   1.000
    C74     C    0.93723   0.89931   0.81638   1.000
    C75     C    0.92640   0.88940   0.78820   1.000
    C76     C    0.01390   0.75660   0.78640   1.000
    C77     C    0.02310   0.78670   0.79990   1.000
    O26     O    0.96974   0.86132   0.81961   1.000
    C78     C    0.00860   0.77660   0.80900   1.000
    O27     O    0.97008   0.39541   0.35383   1.000
    C79     C    0.95922   0.38447   0.33068   1.000
    C80     C    0.93723   0.39931   0.31638   1.000
    C81     C    0.92640   0.38940   0.28820   1.000
    C82     C    0.01390   0.25660   0.28640   1.000
    C83     C    0.02310   0.28670   0.29990   1.000
    O28     O    0.96974   0.36132   0.31961   1.000
    C84     C    0.00860   0.27660   0.30900   1.000
    O29     O    0.47008   0.89541   0.35383   1.000
    C85     C    0.45922   0.88447   0.33068   1.000
    C86     C    0.43723   0.89931   0.31638   1.000
    C87     C    0.42640   0.88940   0.28820   1.000
    C88     C    0.51390   0.75660   0.28640   1.000
    C89     C    0.52310   0.78670   0.29990   1.000
    O30     O    0.46974   0.86132   0.31961   1.000
    C90     C    0.50860   0.77660   0.30900   1.000
    O31     O    0.47008   0.39541   0.85383   1.000
    C91     C    0.45922   0.38447   0.83068   1.000
    C92     C    0.43723   0.39931   0.81638   1.000
    C93     C    0.42640   0.38940   0.78820   1.000
    C94     C    0.51390   0.25660   0.78640   1.000
    C95     C    0.52310   0.28670   0.79990   1.000
    O32     O    0.46974   0.36132   0.81961   1.000
    C96     C    0.50860   0.27660   0.80900   1.000
    O33     O    0.14617   0.97008   0.10459   1.000
    C97     C    0.16932   0.95922   0.11553   1.000
    C98     C    0.18362   0.93723   0.10069   1.000
    C99     C    0.21180   0.92640   0.11060   1.000
    C100    C    0.21360   0.01390   0.24340   1.000
    C101    C    0.20010   0.02310   0.21330   1.000
    O34     O    0.18039   0.96974   0.13868   1.000
    C102    C    0.19100   0.00860   0.22340   1.000
    O35     O    0.14617   0.47008   0.60459   1.000
    C103    C    0.16932   0.45922   0.61553   1.000
    C104    C    0.18362   0.43723   0.60069   1.000
    C105    C    0.21180   0.42640   0.61060   1.000
    C106    C    0.21360   0.51390   0.74340   1.000
    C107    C    0.20010   0.52310   0.71330   1.000
    O36     O    0.18039   0.46974   0.63868   1.000
    C108    C    0.19100   0.50860   0.72340   1.000
    O37     O    0.64617   0.97008   0.60459   1.000
    C109    C    0.66932   0.95922   0.61553   1.000
    C110    C    0.68362   0.93723   0.60069   1.000
    C111    C    0.71180   0.92640   0.61060   1.000
    C112    C    0.71360   0.01390   0.74340   1.000
    C113    C    0.70010   0.02310   0.71330   1.000
    O38     O    0.68039   0.96974   0.63868   1.000
    C114    C    0.69100   0.00860   0.72340   1.000
    O39     O    0.64617   0.47008   0.10459   1.000
    C115    C    0.66932   0.45922   0.11553   1.000
    C116    C    0.68362   0.43723   0.10069   1.000
    C117    C    0.71180   0.42640   0.11060   1.000
    C118    C    0.71360   0.51390   0.24340   1.000
    C119    C    0.70010   0.52310   0.21330   1.000
    O40     O    0.68039   0.46974   0.13868   1.000
    C120    C    0.69100   0.50860   0.22340   1.000
    O41     O    0.14617   0.02992   0.89541   1.000
    C121    C    0.16932   0.04078   0.88447   1.000
    C122    C    0.18362   0.06277   0.89931   1.000
    C123    C    0.21180   0.07360   0.88940   1.000
    C124    C    0.21360   0.98610   0.75660   1.000
    C125    C    0.20010   0.97690   0.78670   1.000
    O42     O    0.18039   0.03026   0.86132   1.000
    C126    C    0.19100   0.99140   0.77660   1.000
    O43     O    0.14617   0.52992   0.39541   1.000
    C127    C    0.16932   0.54078   0.38447   1.000
    C128    C    0.18362   0.56277   0.39931   1.000
    C129    C    0.21180   0.57360   0.38940   1.000
    C130    C    0.21360   0.48610   0.25660   1.000
    C131    C    0.20010   0.47690   0.28670   1.000
    O44     O    0.18039   0.53026   0.36132   1.000
    C132    C    0.19100   0.49140   0.27660   1.000
    O45     O    0.64617   0.02992   0.39541   1.000
    C133    C    0.66932   0.04078   0.38447   1.000
    C134    C    0.68362   0.06277   0.39931   1.000
    C135    C    0.71180   0.07360   0.38940   1.000
    C136    C    0.71360   0.98610   0.25660   1.000
    C137    C    0.70010   0.97690   0.28670   1.000
    O46     O    0.68039   0.03026   0.36132   1.000
    C138    C    0.69100   0.99140   0.27660   1.000
    O47     O    0.64617   0.52992   0.89541   1.000
    C139    C    0.66932   0.54078   0.88447   1.000
    C140    C    0.68362   0.56277   0.89931   1.000
    C141    C    0.71180   0.57360   0.88940   1.000
    C142    C    0.71360   0.48610   0.75660   1.000
    C143    C    0.70010   0.47690   0.78670   1.000
    O48     O    0.68039   0.53026   0.86132   1.000
    C144    C    0.69100   0.49140   0.77660   1.000
    O49     O    0.85383   0.02992   0.10459   1.000
    C145    C    0.83068   0.04078   0.11553   1.000
    C146    C    0.81638   0.06277   0.10069   1.000
    C147    C    0.78820   0.07360   0.11060   1.000
    C148    C    0.78640   0.98610   0.24340   1.000
    C149    C    0.79990   0.97690   0.21330   1.000
    O50     O    0.81961   0.03026   0.13868   1.000
    C150    C    0.80900   0.99140   0.22340   1.000
    O51     O    0.85383   0.52992   0.60459   1.000
    C151    C    0.83068   0.54078   0.61553   1.000
    C152    C    0.81638   0.56277   0.60069   1.000
    C153    C    0.78820   0.57360   0.61060   1.000
    C154    C    0.78640   0.48610   0.74340   1.000
    C155    C    0.79990   0.47690   0.71330   1.000
    O52     O    0.81961   0.53026   0.63868   1.000
    C156    C    0.80900   0.49140   0.72340   1.000
    O53     O    0.35383   0.02992   0.60459   1.000
    C157    C    0.33068   0.04078   0.61553   1.000
    C158    C    0.31638   0.06277   0.60069   1.000
    C159    C    0.28820   0.07360   0.61060   1.000
    C160    C    0.28640   0.98610   0.74340   1.000
    C161    C    0.29990   0.97690   0.71330   1.000
    O54     O    0.31961   0.03026   0.63868   1.000
    C162    C    0.30900   0.99140   0.72340   1.000
    O55     O    0.35383   0.52992   0.10459   1.000
    C163    C    0.33068   0.54078   0.11553   1.000
    C164    C    0.31638   0.56277   0.10069   1.000
    C165    C    0.28820   0.57360   0.11060   1.000
    C166    C    0.28640   0.48610   0.24340   1.000
    C167    C    0.29990   0.47690   0.21330   1.000
    O56     O    0.31961   0.53026   0.13868   1.000
    C168    C    0.30900   0.49140   0.22340   1.000
    O57     O    0.85383   0.97008   0.89541   1.000
    C169    C    0.83068   0.95922   0.88447   1.000
    C170    C    0.81638   0.93723   0.89931   1.000
    C171    C    0.78820   0.92640   0.88940   1.000
    C172    C    0.78640   0.01390   0.75660   1.000
    C173    C    0.79990   0.02310   0.78670   1.000
    O58     O    0.81961   0.96974   0.86132   1.000
    C174    C    0.80900   0.00860   0.77660   1.000
    O59     O    0.85383   0.47008   0.39541   1.000
    C175    C    0.83068   0.45922   0.38447   1.000
    C176    C    0.81638   0.43723   0.39931   1.000
    C177    C    0.78820   0.42640   0.38940   1.000
    C178    C    0.78640   0.51390   0.25660   1.000
    C179    C    0.79990   0.52310   0.28670   1.000
    O60     O    0.81961   0.46974   0.36132   1.000
    C180    C    0.80900   0.50860   0.27660   1.000
    O61     O    0.35383   0.97008   0.39541   1.000
    C181    C    0.33068   0.95922   0.38447   1.000
    C182    C    0.31638   0.93723   0.39931   1.000
    C183    C    0.28820   0.92640   0.38940   1.000
    C184    C    0.28640   0.01390   0.25660   1.000
    C185    C    0.29990   0.02310   0.28670   1.000
    O62     O    0.31961   0.96974   0.36132   1.000
    C186    C    0.30900   0.00860   0.27660   1.000
    O63     O    0.35383   0.47008   0.89541   1.000
    C187    C    0.33068   0.45922   0.88447   1.000
    C188    C    0.31638   0.43723   0.89931   1.000
    C189    C    0.28820   0.42640   0.88940   1.000
    C190    C    0.28640   0.51390   0.75660   1.000
    C191    C    0.29990   0.52310   0.78670   1.000
    O64     O    0.31961   0.46974   0.86132   1.000
    C192    C    0.30900   0.50860   0.77660   1.000
    O65     O    0.10459   0.14617   0.97008   1.000
    C193    C    0.11553   0.16932   0.95922   1.000
    C194    C    0.10069   0.18362   0.93723   1.000
    C195    C    0.11060   0.21180   0.92640   1.000
    C196    C    0.24340   0.21360   0.01390   1.000
    C197    C    0.21330   0.20010   0.02310   1.000
    O66     O    0.13868   0.18039   0.96974   1.000
    C198    C    0.22340   0.19100   0.00860   1.000
    O67     O    0.10459   0.64617   0.47008   1.000
    C199    C    0.11553   0.66932   0.45922   1.000
    C200    C    0.10069   0.68362   0.43723   1.000
    C201    C    0.11060   0.71180   0.42640   1.000
    C202    C    0.24340   0.71360   0.51390   1.000
    C203    C    0.21330   0.70010   0.52310   1.000
    O68     O    0.13868   0.68039   0.46974   1.000
    C204    C    0.22340   0.69100   0.50860   1.000
    O69     O    0.60459   0.14617   0.47008   1.000
    C205    C    0.61553   0.16932   0.45922   1.000
    C206    C    0.60069   0.18362   0.43723   1.000
    C207    C    0.61060   0.21180   0.42640   1.000
    C208    C    0.74340   0.21360   0.51390   1.000
    C209    C    0.71330   0.20010   0.52310   1.000
    O70     O    0.63868   0.18039   0.46974   1.000
    C210    C    0.72340   0.19100   0.50860   1.000
    O71     O    0.60459   0.64617   0.97008   1.000
    C211    C    0.61553   0.66932   0.95922   1.000
    C212    C    0.60069   0.68362   0.93723   1.000
    C213    C    0.61060   0.71180   0.92640   1.000
    C214    C    0.74340   0.71360   0.01390   1.000
    C215    C    0.71330   0.70010   0.02310   1.000
    O72     O    0.63868   0.68039   0.96974   1.000
    C216    C    0.72340   0.69100   0.00860   1.000
    O73     O    0.89541   0.14617   0.02992   1.000
    C217    C    0.88447   0.16932   0.04078   1.000
    C218    C    0.89931   0.18362   0.06277   1.000
    C219    C    0.88940   0.21180   0.07360   1.000
    C220    C    0.75660   0.21360   0.98610   1.000
    C221    C    0.78670   0.20010   0.97690   1.000
    O74     O    0.86132   0.18039   0.03026   1.000
    C222    C    0.77660   0.19100   0.99140   1.000
    O75     O    0.89541   0.64617   0.52992   1.000
    C223    C    0.88447   0.66932   0.54078   1.000
    C224    C    0.89931   0.68362   0.56277   1.000
    C225    C    0.88940   0.71180   0.57360   1.000
    C226    C    0.75660   0.71360   0.48610   1.000
    C227    C    0.78670   0.70010   0.47690   1.000
    O76     O    0.86132   0.68039   0.53026   1.000
    C228    C    0.77660   0.69100   0.49140   1.000
    O77     O    0.39541   0.14617   0.52992   1.000
    C229    C    0.38447   0.16932   0.54078   1.000
    C230    C    0.39931   0.18362   0.56277   1.000
    C231    C    0.38940   0.21180   0.57360   1.000
    C232    C    0.25660   0.21360   0.48610   1.000
    C233    C    0.28670   0.20010   0.47690   1.000
    O78     O    0.36132   0.18039   0.53026   1.000
    C234    C    0.27660   0.19100   0.49140   1.000
    O79     O    0.39541   0.64617   0.02992   1.000
    C235    C    0.38447   0.66932   0.04078   1.000
    C236    C    0.39931   0.68362   0.06277   1.000
    C237    C    0.38940   0.71180   0.07360   1.000
    C238    C    0.25660   0.71360   0.98610   1.000
    C239    C    0.28670   0.70010   0.97690   1.000
    O80     O    0.36132   0.68039   0.03026   1.000
    C240    C    0.27660   0.69100   0.99140   1.000
    O81     O    0.10459   0.85383   0.02992   1.000
    C241    C    0.11553   0.83068   0.04078   1.000
    C242    C    0.10069   0.81638   0.06277   1.000
    C243    C    0.11060   0.78820   0.07360   1.000
    C244    C    0.24340   0.78640   0.98610   1.000
    C245    C    0.21330   0.79990   0.97690   1.000
    O82     O    0.13868   0.81961   0.03026   1.000
    C246    C    0.22340   0.80900   0.99140   1.000
    O83     O    0.10459   0.35383   0.52992   1.000
    C247    C    0.11553   0.33068   0.54078   1.000
    C248    C    0.10069   0.31638   0.56277   1.000
    C249    C    0.11060   0.28820   0.57360   1.000
    C250    C    0.24340   0.28640   0.48610   1.000
    C251    C    0.21330   0.29990   0.47690   1.000
    O84     O    0.13868   0.31961   0.53026   1.000
    C252    C    0.22340   0.30900   0.49140   1.000
    O85     O    0.60459   0.85383   0.52992   1.000
    C253    C    0.61553   0.83068   0.54078   1.000
    C254    C    0.60069   0.81638   0.56277   1.000
    C255    C    0.61060   0.78820   0.57360   1.000
    C256    C    0.74340   0.78640   0.48610   1.000
    C257    C    0.71330   0.79990   0.47690   1.000
    O86     O    0.63868   0.81961   0.53026   1.000
    C258    C    0.72340   0.80900   0.49140   1.000
    O87     O    0.60459   0.35383   0.02992   1.000
    C259    C    0.61553   0.33068   0.04078   1.000
    C260    C    0.60069   0.31638   0.06277   1.000
    C261    C    0.61060   0.28820   0.07360   1.000
    C262    C    0.74340   0.28640   0.98610   1.000
    C263    C    0.71330   0.29990   0.97690   1.000
    O88     O    0.63868   0.31961   0.03026   1.000
    C264    C    0.72340   0.30900   0.99140   1.000
    O89     O    0.89541   0.85383   0.97008   1.000
    C265    C    0.88447   0.83068   0.95922   1.000
    C266    C    0.89931   0.81638   0.93723   1.000
    C267    C    0.88940   0.78820   0.92640   1.000
    C268    C    0.75660   0.78640   0.01390   1.000
    C269    C    0.78670   0.79990   0.02310   1.000
    O90     O    0.86132   0.81961   0.96974   1.000
    C270    C    0.77660   0.80900   0.00860   1.000
    O91     O    0.89541   0.35383   0.47008   1.000
    C271    C    0.88447   0.33068   0.45922   1.000
    C272    C    0.89931   0.31638   0.43723   1.000
    C273    C    0.88940   0.28820   0.42640   1.000
    C274    C    0.75660   0.28640   0.51390   1.000
    C275    C    0.78670   0.29990   0.52310   1.000
    O92     O    0.86132   0.31961   0.46974   1.000
    C276    C    0.77660   0.30900   0.50860   1.000
    O93     O    0.39541   0.85383   0.47008   1.000
    C277    C    0.38447   0.83068   0.45922   1.000
    C278    C    0.39931   0.81638   0.43723   1.000
    C279    C    0.38940   0.78820   0.42640   1.000
    C280    C    0.25660   0.78640   0.51390   1.000
    C281    C    0.28670   0.79990   0.52310   1.000
    O94     O    0.36132   0.81961   0.46974   1.000
    C282    C    0.27660   0.80900   0.50860   1.000
    O95     O    0.39541   0.35383   0.97008   1.000
    C283    C    0.38447   0.33068   0.95922   1.000
    C284    C    0.39931   0.31638   0.93723   1.000
    C285    C    0.38940   0.28820   0.92640   1.000
    C286    C    0.25660   0.28640   0.01390   1.000
    C287    C    0.28670   0.29990   0.02310   1.000
    O96     O    0.36132   0.31961   0.96974   1.000
    C288    C    0.27660   0.30900   0.00860   1.000
    O97     O    0.10459   0.97008   0.85383   1.000
    C289    C    0.11553   0.95922   0.83068   1.000
    C290    C    0.10069   0.93723   0.81638   1.000
    C291    C    0.11060   0.92640   0.78820   1.000
    C292    C    0.24340   0.01390   0.78640   1.000
    C293    C    0.21330   0.02310   0.79990   1.000
    O98     O    0.13868   0.96974   0.81961   1.000
    C294    C    0.22340   0.00860   0.80900   1.000
    O99     O    0.10459   0.47008   0.35383   1.000
    C295    C    0.11553   0.45922   0.33068   1.000
    C296    C    0.10069   0.43723   0.31638   1.000
    C297    C    0.11060   0.42640   0.28820   1.000
    C298    C    0.24340   0.51390   0.28640   1.000
    C299    C    0.21330   0.52310   0.29990   1.000
    O100    O    0.13868   0.46974   0.31961   1.000
    C300    C    0.22340   0.50860   0.30900   1.000
    O101    O    0.60459   0.97008   0.35383   1.000
    C301    C    0.61553   0.95922   0.33068   1.000
    C302    C    0.60069   0.93723   0.31638   1.000
    C303    C    0.61060   0.92640   0.28820   1.000
    C304    C    0.74340   0.01390   0.28640   1.000
    C305    C    0.71330   0.02310   0.29990   1.000
    O102    O    0.63868   0.96974   0.31961   1.000
    C306    C    0.72340   0.00860   0.30900   1.000
    O103    O    0.60459   0.47008   0.85383   1.000
    C307    C    0.61553   0.45922   0.83068   1.000
    C308    C    0.60069   0.43723   0.81638   1.000
    C309    C    0.61060   0.42640   0.78820   1.000
    C310    C    0.74340   0.51390   0.78640   1.000
    C311    C    0.71330   0.52310   0.79990   1.000
    O104    O    0.63868   0.46974   0.81961   1.000
    C312    C    0.72340   0.50860   0.80900   1.000
    O105    O    0.89541   0.02992   0.85383   1.000
    C313    C    0.88447   0.04078   0.83068   1.000
    C314    C    0.89931   0.06277   0.81638   1.000
    C315    C    0.88940   0.07360   0.78820   1.000
    C316    C    0.75660   0.98610   0.78640   1.000
    C317    C    0.78670   0.97690   0.79990   1.000
    O106    O    0.86132   0.03026   0.81961   1.000
    C318    C    0.77660   0.99140   0.80900   1.000
    O107    O    0.89541   0.52992   0.35383   1.000
    C319    C    0.88447   0.54078   0.33068   1.000
    C320    C    0.89931   0.56277   0.31638   1.000
    C321    C    0.88940   0.57360   0.28820   1.000
    C322    C    0.75660   0.48610   0.28640   1.000
    C323    C    0.78670   0.47690   0.29990   1.000
    O108    O    0.86132   0.53026   0.31961   1.000
    C324    C    0.77660   0.49140   0.30900   1.000
    O109    O    0.39541   0.02992   0.35383   1.000
    C325    C    0.38447   0.04078   0.33068   1.000
    C326    C    0.39931   0.06277   0.31638   1.000
    C327    C    0.38940   0.07360   0.28820   1.000
    C328    C    0.25660   0.98610   0.28640   1.000
    C329    C    0.28670   0.97690   0.29990   1.000
    O110    O    0.36132   0.03026   0.31961   1.000
    C330    C    0.27660   0.99140   0.30900   1.000
    O111    O    0.39541   0.52992   0.85383   1.000
    C331    C    0.38447   0.54078   0.83068   1.000
    C332    C    0.39931   0.56277   0.81638   1.000
    C333    C    0.38940   0.57360   0.78820   1.000
    C334    C    0.25660   0.48610   0.78640   1.000
    C335    C    0.28670   0.47690   0.79990   1.000
    O112    O    0.36132   0.53026   0.81961   1.000
    C336    C    0.27660   0.49140   0.80900   1.000
    O113    O    0.10459   0.02992   0.14617   1.000
    C337    C    0.11553   0.04078   0.16932   1.000
    C338    C    0.10069   0.06277   0.18362   1.000
    C339    C    0.11060   0.07360   0.21180   1.000
    C340    C    0.24340   0.98610   0.21360   1.000
    C341    C    0.21330   0.97690   0.20010   1.000
    O114    O    0.13868   0.03026   0.18039   1.000
    C342    C    0.22340   0.99140   0.19100   1.000
    O115    O    0.10459   0.52992   0.64617   1.000
    C343    C    0.11553   0.54078   0.66932   1.000
    C344    C    0.10069   0.56277   0.68362   1.000
    C345    C    0.11060   0.57360   0.71180   1.000
    C346    C    0.24340   0.48610   0.71360   1.000
    C347    C    0.21330   0.47690   0.70010   1.000
    O116    O    0.13868   0.53026   0.68039   1.000
    C348    C    0.22340   0.49140   0.69100   1.000
    O117    O    0.60459   0.02992   0.64617   1.000
    C349    C    0.61553   0.04078   0.66932   1.000
    C350    C    0.60069   0.06277   0.68362   1.000
    C351    C    0.61060   0.07360   0.71180   1.000
    C352    C    0.74340   0.98610   0.71360   1.000
    C353    C    0.71330   0.97690   0.70010   1.000
    O118    O    0.63868   0.03026   0.68039   1.000
    C354    C    0.72340   0.99140   0.69100   1.000
    O119    O    0.60459   0.52992   0.14617   1.000
    C355    C    0.61553   0.54078   0.16932   1.000
    C356    C    0.60069   0.56277   0.18362   1.000
    C357    C    0.61060   0.57360   0.21180   1.000
    C358    C    0.74340   0.48610   0.21360   1.000
    C359    C    0.71330   0.47690   0.20010   1.000
    O120    O    0.63868   0.53026   0.18039   1.000
    C360    C    0.72340   0.49140   0.19100   1.000
    O121    O    0.89541   0.97008   0.14617   1.000
    C361    C    0.88447   0.95922   0.16932   1.000
    C362    C    0.89931   0.93723   0.18362   1.000
    C363    C    0.88940   0.92640   0.21180   1.000
    C364    C    0.75660   0.01390   0.21360   1.000
    C365    C    0.78670   0.02310   0.20010   1.000
    O122    O    0.86132   0.96974   0.18039   1.000
    C366    C    0.77660   0.00860   0.19100   1.000
    O123    O    0.89541   0.47008   0.64617   1.000
    C367    C    0.88447   0.45922   0.66932   1.000
    C368    C    0.89931   0.43723   0.68362   1.000
    C369    C    0.88940   0.42640   0.71180   1.000
    C370    C    0.75660   0.51390   0.71360   1.000
    C371    C    0.78670   0.52310   0.70010   1.000
    O124    O    0.86132   0.46974   0.68039   1.000
    C372    C    0.77660   0.50860   0.69100   1.000
    O125    O    0.39541   0.97008   0.64617   1.000
    C373    C    0.38447   0.95922   0.66932   1.000
    C374    C    0.39931   0.93723   0.68362   1.000
    C375    C    0.38940   0.92640   0.71180   1.000
    C376    C    0.25660   0.01390   0.71360   1.000
    C377    C    0.28670   0.02310   0.70010   1.000
    O126    O    0.36132   0.96974   0.68039   1.000
    C378    C    0.27660   0.00860   0.69100   1.000
    O127    O    0.39541   0.47008   0.14617   1.000
    C379    C    0.38447   0.45922   0.16932   1.000
    C380    C    0.39931   0.43723   0.18362   1.000
    C381    C    0.38940   0.42640   0.21180   1.000
    C382    C    0.25660   0.51390   0.21360   1.000
    C383    C    0.28670   0.52310   0.20010   1.000
    O128    O    0.36132   0.46974   0.18039   1.000
    C384    C    0.27660   0.50860   0.19100   1.000
    O129    O    0.97008   0.14617   0.89541   1.000
    C385    C    0.95922   0.16932   0.88447   1.000
    C386    C    0.93723   0.18362   0.89931   1.000
    C387    C    0.92640   0.21180   0.88940   1.000
    C388    C    0.01390   0.21360   0.75660   1.000
    C389    C    0.02310   0.20010   0.78670   1.000
    O130    O    0.96974   0.18039   0.86132   1.000
    C390    C    0.00860   0.19100   0.77660   1.000
    O131    O    0.97008   0.64617   0.39541   1.000
    C391    C    0.95922   0.66932   0.38447   1.000
    C392    C    0.93723   0.68362   0.39931   1.000
    C393    C    0.92640   0.71180   0.38940   1.000
    C394    C    0.01390   0.71360   0.25660   1.000
    C395    C    0.02310   0.70010   0.28670   1.000
    O132    O    0.96974   0.68039   0.36132   1.000
    C396    C    0.00860   0.69100   0.27660   1.000
    O133    O    0.47008   0.14617   0.39541   1.000
    C397    C    0.45922   0.16932   0.38447   1.000
    C398    C    0.43723   0.18362   0.39931   1.000
    C399    C    0.42640   0.21180   0.38940   1.000
    C400    C    0.51390   0.21360   0.25660   1.000
    C401    C    0.52310   0.20010   0.28670   1.000
    O134    O    0.46974   0.18039   0.36132   1.000
    C402    C    0.50860   0.19100   0.27660   1.000
    O135    O    0.47008   0.64617   0.89541   1.000
    C403    C    0.45922   0.66932   0.88447   1.000
    C404    C    0.43723   0.68362   0.89931   1.000
    C405    C    0.42640   0.71180   0.88940   1.000
    C406    C    0.51390   0.71360   0.75660   1.000
    C407    C    0.52310   0.70010   0.78670   1.000
    O136    O    0.46974   0.68039   0.86132   1.000
    C408    C    0.50860   0.69100   0.77660   1.000
    O137    O    0.02992   0.14617   0.10459   1.000
    C409    C    0.04078   0.16932   0.11553   1.000
    C410    C    0.06277   0.18362   0.10069   1.000
    C411    C    0.07360   0.21180   0.11060   1.000
    C412    C    0.98610   0.21360   0.24340   1.000
    C413    C    0.97690   0.20010   0.21330   1.000
    O138    O    0.03026   0.18039   0.13868   1.000
    C414    C    0.99140   0.19100   0.22340   1.000
    O139    O    0.02992   0.64617   0.60459   1.000
    C415    C    0.04078   0.66932   0.61553   1.000
    C416    C    0.06277   0.68362   0.60069   1.000
    C417    C    0.07360   0.71180   0.61060   1.000
    C418    C    0.98610   0.71360   0.74340   1.000
    C419    C    0.97690   0.70010   0.71330   1.000
    O140    O    0.03026   0.68039   0.63868   1.000
    C420    C    0.99140   0.69100   0.72340   1.000
    O141    O    0.52992   0.14617   0.60459   1.000
    C421    C    0.54078   0.16932   0.61553   1.000
    C422    C    0.56277   0.18362   0.60069   1.000
    C423    C    0.57360   0.21180   0.61060   1.000
    C424    C    0.48610   0.21360   0.74340   1.000
    C425    C    0.47690   0.20010   0.71330   1.000
    O142    O    0.53026   0.18039   0.63868   1.000
    C426    C    0.49140   0.19100   0.72340   1.000
    O143    O    0.52992   0.64617   0.10459   1.000
    C427    C    0.54078   0.66932   0.11553   1.000
    C428    C    0.56277   0.68362   0.10069   1.000
    C429    C    0.57360   0.71180   0.11060   1.000
    C430    C    0.48610   0.71360   0.24340   1.000
    C431    C    0.47690   0.70010   0.21330   1.000
    O144    O    0.53026   0.68039   0.13868   1.000
    C432    C    0.49140   0.69100   0.22340   1.000
    O145    O    0.02992   0.85383   0.89541   1.000
    C433    C    0.04078   0.83068   0.88447   1.000
    C434    C    0.06277   0.81638   0.89931   1.000
    C435    C    0.07360   0.78820   0.88940   1.000
    C436    C    0.98610   0.78640   0.75660   1.000
    C437    C    0.97690   0.79990   0.78670   1.000
    O146    O    0.03026   0.81961   0.86132   1.000
    C438    C    0.99140   0.80900   0.77660   1.000
    O147    O    0.02992   0.35383   0.39541   1.000
    C439    C    0.04078   0.33068   0.38447   1.000
    C440    C    0.06277   0.31638   0.39931   1.000
    C441    C    0.07360   0.28820   0.38940   1.000
    C442    C    0.98610   0.28640   0.25660   1.000
    C443    C    0.97690   0.29990   0.28670   1.000
    O148    O    0.03026   0.31961   0.36132   1.000
    C444    C    0.99140   0.30900   0.27660   1.000
    O149    O    0.52992   0.85383   0.39541   1.000
    C445    C    0.54078   0.83068   0.38447   1.000
    C446    C    0.56277   0.81638   0.39931   1.000
    C447    C    0.57360   0.78820   0.38940   1.000
    C448    C    0.48610   0.78640   0.25660   1.000
    C449    C    0.47690   0.79990   0.28670   1.000
    O150    O    0.53026   0.81961   0.36132   1.000
    C450    C    0.49140   0.80900   0.27660   1.000
    O151    O    0.52992   0.35383   0.89541   1.000
    C451    C    0.54078   0.33068   0.88447   1.000
    C452    C    0.56277   0.31638   0.89931   1.000
    C453    C    0.57360   0.28820   0.88940   1.000
    C454    C    0.48610   0.28640   0.75660   1.000
    C455    C    0.47690   0.29990   0.78670   1.000
    O152    O    0.53026   0.31961   0.86132   1.000
    C456    C    0.49140   0.30900   0.77660   1.000
    O153    O    0.97008   0.85383   0.10459   1.000
    C457    C    0.95922   0.83068   0.11553   1.000
    C458    C    0.93723   0.81638   0.10069   1.000
    C459    C    0.92640   0.78820   0.11060   1.000
    C460    C    0.01390   0.78640   0.24340   1.000
    C461    C    0.02310   0.79990   0.21330   1.000
    O154    O    0.96974   0.81961   0.13868   1.000
    C462    C    0.00860   0.80900   0.22340   1.000
    O155    O    0.97008   0.35383   0.60459   1.000
    C463    C    0.95922   0.33068   0.61553   1.000
    C464    C    0.93723   0.31638   0.60069   1.000
    C465    C    0.92640   0.28820   0.61060   1.000
    C466    C    0.01390   0.28640   0.74340   1.000
    C467    C    0.02310   0.29990   0.71330   1.000
    O156    O    0.96974   0.31961   0.63868   1.000
    C468    C    0.00860   0.30900   0.72340   1.000
    O157    O    0.47008   0.85383   0.60459   1.000
    C469    C    0.45922   0.83068   0.61553   1.000
    C470    C    0.43723   0.81638   0.60069   1.000
    C471    C    0.42640   0.78820   0.61060   1.000
    C472    C    0.51390   0.78640   0.74340   1.000
    C473    C    0.52310   0.79990   0.71330   1.000
    O158    O    0.46974   0.81961   0.63868   1.000
    C474    C    0.50860   0.80900   0.72340   1.000
    O159    O    0.47008   0.35383   0.10459   1.000
    C475    C    0.45922   0.33068   0.11553   1.000
    C476    C    0.43723   0.31638   0.10069   1.000
    C477    C    0.42640   0.28820   0.11060   1.000
    C478    C    0.51390   0.28640   0.24340   1.000
    C479    C    0.52310   0.29990   0.21330   1.000
    O160    O    0.46974   0.31961   0.13868   1.000
    C480    C    0.50860   0.30900   0.22340   1.000
    O161    O    0.14617   0.10459   0.02992   1.000
    C481    C    0.16932   0.11553   0.04078   1.000
    C482    C    0.18362   0.10069   0.06277   1.000
    C483    C    0.21180   0.11060   0.07360   1.000
    C484    C    0.21360   0.24340   0.98610   1.000
    C485    C    0.20010   0.21330   0.97690   1.000
    O162    O    0.18039   0.13868   0.03026   1.000
    C486    C    0.19100   0.22340   0.99140   1.000
    O163    O    0.14617   0.60459   0.52992   1.000
    C487    C    0.16932   0.61553   0.54078   1.000
    C488    C    0.18362   0.60069   0.56277   1.000
    C489    C    0.21180   0.61060   0.57360   1.000
    C490    C    0.21360   0.74340   0.48610   1.000
    C491    C    0.20010   0.71330   0.47690   1.000
    O164    O    0.18039   0.63868   0.53026   1.000
    C492    C    0.19100   0.72340   0.49140   1.000
    O165    O    0.64617   0.10459   0.52992   1.000
    C493    C    0.66932   0.11553   0.54078   1.000
    C494    C    0.68362   0.10069   0.56277   1.000
    C495    C    0.71180   0.11060   0.57360   1.000
    C496    C    0.71360   0.24340   0.48610   1.000
    C497    C    0.70010   0.21330   0.47690   1.000
    O166    O    0.68039   0.13868   0.53026   1.000
    C498    C    0.69100   0.22340   0.49140   1.000
    O167    O    0.64617   0.60459   0.02992   1.000
    C499    C    0.66932   0.61553   0.04078   1.000
    C500    C    0.68362   0.60069   0.06277   1.000
    C501    C    0.71180   0.61060   0.07360   1.000
    C502    C    0.71360   0.74340   0.98610   1.000
    C503    C    0.70010   0.71330   0.97690   1.000
    O168    O    0.68039   0.63868   0.03026   1.000
    C504    C    0.69100   0.72340   0.99140   1.000
    O169    O    0.14617   0.89541   0.97008   1.000
    C505    C    0.16932   0.88447   0.95922   1.000
    C506    C    0.18362   0.89931   0.93723   1.000
    C507    C    0.21180   0.88940   0.92640   1.000
    C508    C    0.21360   0.75660   0.01390   1.000
    C509    C    0.20010   0.78670   0.02310   1.000
    O170    O    0.18039   0.86132   0.96974   1.000
    C510    C    0.19100   0.77660   0.00860   1.000
    O171    O    0.14617   0.39541   0.47008   1.000
    C511    C    0.16932   0.38447   0.45922   1.000
    C512    C    0.18362   0.39931   0.43723   1.000
    C513    C    0.21180   0.38940   0.42640   1.000
    C514    C    0.21360   0.25660   0.51390   1.000
    C515    C    0.20010   0.28670   0.52310   1.000
    O172    O    0.18039   0.36132   0.46974   1.000
    C516    C    0.19100   0.27660   0.50860   1.000
    O173    O    0.64617   0.89541   0.47008   1.000
    C517    C    0.66932   0.88447   0.45922   1.000
    C518    C    0.68362   0.89931   0.43723   1.000
    C519    C    0.71180   0.88940   0.42640   1.000
    C520    C    0.71360   0.75660   0.51390   1.000
    C521    C    0.70010   0.78670   0.52310   1.000
    O174    O    0.68039   0.86132   0.46974   1.000
    C522    C    0.69100   0.77660   0.50860   1.000
    O175    O    0.64617   0.39541   0.97008   1.000
    C523    C    0.66932   0.38447   0.95922   1.000
    C524    C    0.68362   0.39931   0.93723   1.000
    C525    C    0.71180   0.38940   0.92640   1.000
    C526    C    0.71360   0.25660   0.01390   1.000
    C527    C    0.70010   0.28670   0.02310   1.000
    O176    O    0.68039   0.36132   0.96974   1.000
    C528    C    0.69100   0.27660   0.00860   1.000
    O177    O    0.85383   0.10459   0.97008   1.000
    C529    C    0.83068   0.11553   0.95922   1.000
    C530    C    0.81638   0.10069   0.93723   1.000
    C531    C    0.78820   0.11060   0.92640   1.000
    C532    C    0.78640   0.24340   0.01390   1.000
    C533    C    0.79990   0.21330   0.02310   1.000
    O178    O    0.81961   0.13868   0.96974   1.000
    C534    C    0.80900   0.22340   0.00860   1.000
    O179    O    0.85383   0.60459   0.47008   1.000
    C535    C    0.83068   0.61553   0.45922   1.000
    C536    C    0.81638   0.60069   0.43723   1.000
    C537    C    0.78820   0.61060   0.42640   1.000
    C538    C    0.78640   0.74340   0.51390   1.000
    C539    C    0.79990   0.71330   0.52310   1.000
    O180    O    0.81961   0.63868   0.46974   1.000
    C540    C    0.80900   0.72340   0.50860   1.000
    O181    O    0.35383   0.10459   0.47008   1.000
    C541    C    0.33068   0.11553   0.45922   1.000
    C542    C    0.31638   0.10069   0.43723   1.000
    C543    C    0.28820   0.11060   0.42640   1.000
    C544    C    0.28640   0.24340   0.51390   1.000
    C545    C    0.29990   0.21330   0.52310   1.000
    O182    O    0.31961   0.13868   0.46974   1.000
    C546    C    0.30900   0.22340   0.50860   1.000
    O183    O    0.35383   0.60459   0.97008   1.000
    C547    C    0.33068   0.61553   0.95922   1.000
    C548    C    0.31638   0.60069   0.93723   1.000
    C549    C    0.28820   0.61060   0.92640   1.000
    C550    C    0.28640   0.74340   0.01390   1.000
    C551    C    0.29990   0.71330   0.02310   1.000
    O184    O    0.31961   0.63868   0.96974   1.000
    C552    C    0.30900   0.72340   0.00860   1.000
    O185    O    0.85383   0.89541   0.02992   1.000
    C553    C    0.83068   0.88447   0.04078   1.000
    C554    C    0.81638   0.89931   0.06277   1.000
    C555    C    0.78820   0.88940   0.07360   1.000
    C556    C    0.78640   0.75660   0.98610   1.000
    C557    C    0.79990   0.78670   0.97690   1.000
    O186    O    0.81961   0.86132   0.03026   1.000
    C558    C    0.80900   0.77660   0.99140   1.000
    O187    O    0.85383   0.39541   0.52992   1.000
    C559    C    0.83068   0.38447   0.54078   1.000
    C560    C    0.81638   0.39931   0.56277   1.000
    C561    C    0.78820   0.38940   0.57360   1.000
    C562    C    0.78640   0.25660   0.48610   1.000
    C563    C    0.79990   0.28670   0.47690   1.000
    O188    O    0.81961   0.36132   0.53026   1.000
    C564    C    0.80900   0.27660   0.49140   1.000
    O189    O    0.35383   0.89541   0.52992   1.000
    C565    C    0.33068   0.88447   0.54078   1.000
    C566    C    0.31638   0.89931   0.56277   1.000
    C567    C    0.28820   0.88940   0.57360   1.000
    C568    C    0.28640   0.75660   0.48610   1.000
    C569    C    0.29990   0.78670   0.47690   1.000
    O190    O    0.31961   0.86132   0.53026   1.000
    C570    C    0.30900   0.77660   0.49140   1.000
    O191    O    0.35383   0.39541   0.02992   1.000
    C571    C    0.33068   0.38447   0.04078   1.000
    C572    C    0.31638   0.39931   0.06277   1.000
    C573    C    0.28820   0.38940   0.07360   1.000
    C574    C    0.28640   0.25660   0.98610   1.000
    C575    C    0.29990   0.28670   0.97690   1.000
    O192    O    0.31961   0.36132   0.03026   1.000
    C576    C    0.30900   0.27660   0.99140   1.000
    O193    O    0.02992   0.89541   0.85383   1.000
    C577    C    0.04078   0.88447   0.83068   1.000
    C578    C    0.06277   0.89931   0.81638   1.000
    C579    C    0.07360   0.88940   0.78820   1.000
    C580    C    0.98610   0.75660   0.78640   1.000
    C581    C    0.97690   0.78670   0.79990   1.000
    O194    O    0.03026   0.86132   0.81961   1.000
    C582    C    0.99140   0.77660   0.80900   1.000
    O195    O    0.02992   0.39541   0.35383   1.000
    C583    C    0.04078   0.38447   0.33068   1.000
    C584    C    0.06277   0.39931   0.31638   1.000
    C585    C    0.07360   0.38940   0.28820   1.000
    C586    C    0.98610   0.25660   0.28640   1.000
    C587    C    0.97690   0.28670   0.29990   1.000
    O196    O    0.03026   0.36132   0.31961   1.000
    C588    C    0.99140   0.27660   0.30900   1.000
    O197    O    0.52992   0.89541   0.35383   1.000
    C589    C    0.54078   0.88447   0.33068   1.000
    C590    C    0.56277   0.89931   0.31638   1.000
    C591    C    0.57360   0.88940   0.28820   1.000
    C592    C    0.48610   0.75660   0.28640   1.000
    C593    C    0.47690   0.78670   0.29990   1.000
    O198    O    0.53026   0.86132   0.31961   1.000
    C594    C    0.49140   0.77660   0.30900   1.000
    O199    O    0.52992   0.39541   0.85383   1.000
    C595    C    0.54078   0.38447   0.83068   1.000
    C596    C    0.56277   0.39931   0.81638   1.000
    C597    C    0.57360   0.38940   0.78820   1.000
    C598    C    0.48610   0.25660   0.78640   1.000
    C599    C    0.47690   0.28670   0.79990   1.000
    O200    O    0.53026   0.36132   0.81961   1.000
    C600    C    0.49140   0.27660   0.80900   1.000
    O201    O    0.97008   0.10459   0.85383   1.000
    C601    C    0.95922   0.11553   0.83068   1.000
    C602    C    0.93723   0.10069   0.81638   1.000
    C603    C    0.92640   0.11060   0.78820   1.000
    C604    C    0.01390   0.24340   0.78640   1.000
    C605    C    0.02310   0.21330   0.79990   1.000
    O202    O    0.96974   0.13868   0.81961   1.000
    C606    C    0.00860   0.22340   0.80900   1.000
    O203    O    0.97008   0.60459   0.35383   1.000
    C607    C    0.95922   0.61553   0.33068   1.000
    C608    C    0.93723   0.60069   0.31638   1.000
    C609    C    0.92640   0.61060   0.28820   1.000
    C610    C    0.01390   0.74340   0.28640   1.000
    C611    C    0.02310   0.71330   0.29990   1.000
    O204    O    0.96974   0.63868   0.31961   1.000
    C612    C    0.00860   0.72340   0.30900   1.000
    O205    O    0.47008   0.10459   0.35383   1.000
    C613    C    0.45922   0.11553   0.33068   1.000
    C614    C    0.43723   0.10069   0.31638   1.000
    C615    C    0.42640   0.11060   0.28820   1.000
    C616    C    0.51390   0.24340   0.28640   1.000
    C617    C    0.52310   0.21330   0.29990   1.000
    O206    O    0.46974   0.13868   0.31961   1.000
    C618    C    0.50860   0.22340   0.30900   1.000
    O207    O    0.47008   0.60459   0.85383   1.000
    C619    C    0.45922   0.61553   0.83068   1.000
    C620    C    0.43723   0.60069   0.81638   1.000
    C621    C    0.42640   0.61060   0.78820   1.000
    C622    C    0.51390   0.74340   0.78640   1.000
    C623    C    0.52310   0.71330   0.79990   1.000
    O208    O    0.46974   0.63868   0.81961   1.000
    C624    C    0.50860   0.72340   0.80900   1.000
    O209    O    0.97008   0.89541   0.14617   1.000
    C625    C    0.95922   0.88447   0.16932   1.000
    C626    C    0.93723   0.89931   0.18362   1.000
    C627    C    0.92640   0.88940   0.21180   1.000
    C628    C    0.01390   0.75660   0.21360   1.000
    C629    C    0.02310   0.78670   0.20010   1.000
    O210    O    0.96974   0.86132   0.18039   1.000
    C630    C    0.00860   0.77660   0.19100   1.000
    O211    O    0.97008   0.39541   0.64617   1.000
    C631    C    0.95922   0.38447   0.66932   1.000
    C632    C    0.93723   0.39931   0.68362   1.000
    C633    C    0.92640   0.38940   0.71180   1.000
    C634    C    0.01390   0.25660   0.71360   1.000
    C635    C    0.02310   0.28670   0.70010   1.000
    O212    O    0.96974   0.36132   0.68039   1.000
    C636    C    0.00860   0.27660   0.69100   1.000
    O213    O    0.47008   0.89541   0.64617   1.000
    C637    C    0.45922   0.88447   0.66932   1.000
    C638    C    0.43723   0.89931   0.68362   1.000
    C639    C    0.42640   0.88940   0.71180   1.000
    C640    C    0.51390   0.75660   0.71360   1.000
    C641    C    0.52310   0.78670   0.70010   1.000
    O214    O    0.46974   0.86132   0.68039   1.000
    C642    C    0.50860   0.77660   0.69100   1.000
    O215    O    0.47008   0.39541   0.14617   1.000
    C643    C    0.45922   0.38447   0.16932   1.000
    C644    C    0.43723   0.39931   0.18362   1.000
    C645    C    0.42640   0.38940   0.21180   1.000
    C646    C    0.51390   0.25660   0.21360   1.000
    C647    C    0.52310   0.28670   0.20010   1.000
    O216    O    0.46974   0.36132   0.18039   1.000
    C648    C    0.50860   0.27660   0.19100   1.000
    O217    O    0.02992   0.10459   0.14617   1.000
    C649    C    0.04078   0.11553   0.16932   1.000
    C650    C    0.06277   0.10069   0.18362   1.000
    C651    C    0.07360   0.11060   0.21180   1.000
    C652    C    0.98610   0.24340   0.21360   1.000
    C653    C    0.97690   0.21330   0.20010   1.000
    O218    O    0.03026   0.13868   0.18039   1.000
    C654    C    0.99140   0.22340   0.19100   1.000
    O219    O    0.02992   0.60459   0.64617   1.000
    C655    C    0.04078   0.61553   0.66932   1.000
    C656    C    0.06277   0.60069   0.68362   1.000
    C657    C    0.07360   0.61060   0.71180   1.000
    C658    C    0.98610   0.74340   0.71360   1.000
    C659    C    0.97690   0.71330   0.70010   1.000
    O220    O    0.03026   0.63868   0.68039   1.000
    C660    C    0.99140   0.72340   0.69100   1.000
    O221    O    0.52992   0.10459   0.64617   1.000
    C661    C    0.54078   0.11553   0.66932   1.000
    C662    C    0.56277   0.10069   0.68362   1.000
    C663    C    0.57360   0.11060   0.71180   1.000
    C664    C    0.48610   0.24340   0.71360   1.000
    C665    C    0.47690   0.21330   0.70010   1.000
    O222    O    0.53026   0.13868   0.68039   1.000
    C666    C    0.49140   0.22340   0.69100   1.000
    O223    O    0.52992   0.60459   0.14617   1.000
    C667    C    0.54078   0.61553   0.16932   1.000
    C668    C    0.56277   0.60069   0.18362   1.000
    C669    C    0.57360   0.61060   0.21180   1.000
    C670    C    0.48610   0.74340   0.21360   1.000
    C671    C    0.47690   0.71330   0.20010   1.000
    O224    O    0.53026   0.63868   0.18039   1.000
    C672    C    0.49140   0.72340   0.19100   1.000
    O225    O    0.85383   0.02992   0.89541   1.000
    C673    C    0.83068   0.04078   0.88447   1.000
    C674    C    0.81638   0.06277   0.89931   1.000
    C675    C    0.78820   0.07360   0.88940   1.000
    C676    C    0.78640   0.98610   0.75660   1.000
    C677    C    0.79990   0.97690   0.78670   1.000
    O226    O    0.81961   0.03026   0.86132   1.000
    C678    C    0.80900   0.99140   0.77660   1.000
    O227    O    0.85383   0.52992   0.39541   1.000
    C679    C    0.83068   0.54078   0.38447   1.000
    C680    C    0.81638   0.56277   0.39931   1.000
    C681    C    0.78820   0.57360   0.38940   1.000
    C682    C    0.78640   0.48610   0.25660   1.000
    C683    C    0.79990   0.47690   0.28670   1.000
    O228    O    0.81961   0.53026   0.36132   1.000
    C684    C    0.80900   0.49140   0.27660   1.000
    O229    O    0.35383   0.02992   0.39541   1.000
    C685    C    0.33068   0.04078   0.38447   1.000
    C686    C    0.31638   0.06277   0.39931   1.000
    C687    C    0.28820   0.07360   0.38940   1.000
    C688    C    0.28640   0.98610   0.25660   1.000
    C689    C    0.29990   0.97690   0.28670   1.000
    O230    O    0.31961   0.03026   0.36132   1.000
    C690    C    0.30900   0.99140   0.27660   1.000
    O231    O    0.35383   0.52992   0.89541   1.000
    C691    C    0.33068   0.54078   0.88447   1.000
    C692    C    0.31638   0.56277   0.89931   1.000
    C693    C    0.28820   0.57360   0.88940   1.000
    C694    C    0.28640   0.48610   0.75660   1.000
    C695    C    0.29990   0.47690   0.78670   1.000
    O232    O    0.31961   0.53026   0.86132   1.000
    C696    C    0.30900   0.49140   0.77660   1.000
    O233    O    0.85383   0.97008   0.10459   1.000
    C697    C    0.83068   0.95922   0.11553   1.000
    C698    C    0.81638   0.93723   0.10069   1.000
    C699    C    0.78820   0.92640   0.11060   1.000
    C700    C    0.78640   0.01390   0.24340   1.000
    C701    C    0.79990   0.02310   0.21330   1.000
    O234    O    0.81961   0.96974   0.13868   1.000
    C702    C    0.80900   0.00860   0.22340   1.000
    O235    O    0.85383   0.47008   0.60459   1.000
    C703    C    0.83068   0.45922   0.61553   1.000
    C704    C    0.81638   0.43723   0.60069   1.000
    C705    C    0.78820   0.42640   0.61060   1.000
    C706    C    0.78640   0.51390   0.74340   1.000
    C707    C    0.79990   0.52310   0.71330   1.000
    O236    O    0.81961   0.46974   0.63868   1.000
    C708    C    0.80900   0.50860   0.72340   1.000
    O237    O    0.35383   0.97008   0.60459   1.000
    C709    C    0.33068   0.95922   0.61553   1.000
    C710    C    0.31638   0.93723   0.60069   1.000
    C711    C    0.28820   0.92640   0.61060   1.000
    C712    C    0.28640   0.01390   0.74340   1.000
    C713    C    0.29990   0.02310   0.71330   1.000
    O238    O    0.31961   0.96974   0.63868   1.000
    C714    C    0.30900   0.00860   0.72340   1.000
    O239    O    0.35383   0.47008   0.10459   1.000
    C715    C    0.33068   0.45922   0.11553   1.000
    C716    C    0.31638   0.43723   0.10069   1.000
    C717    C    0.28820   0.42640   0.11060   1.000
    C718    C    0.28640   0.51390   0.24340   1.000
    C719    C    0.29990   0.52310   0.21330   1.000
    O240    O    0.31961   0.46974   0.13868   1.000
    C720    C    0.30900   0.50860   0.22340   1.000
    O241    O    0.14617   0.97008   0.89541   1.000
    C721    C    0.16932   0.95922   0.88447   1.000
    C722    C    0.18362   0.93723   0.89931   1.000
    C723    C    0.21180   0.92640   0.88940   1.000
    C724    C    0.21360   0.01390   0.75660   1.000
    C725    C    0.20010   0.02310   0.78670   1.000
    O242    O    0.18039   0.96974   0.86132   1.000
    C726    C    0.19100   0.00860   0.77660   1.000
    O243    O    0.14617   0.47008   0.39541   1.000
    C727    C    0.16932   0.45922   0.38447   1.000
    C728    C    0.18362   0.43723   0.39931   1.000
    C729    C    0.21180   0.42640   0.38940   1.000
    C730    C    0.21360   0.51390   0.25660   1.000
    C731    C    0.20010   0.52310   0.28670   1.000
    O244    O    0.18039   0.46974   0.36132   1.000
    C732    C    0.19100   0.50860   0.27660   1.000
    O245    O    0.64617   0.97008   0.39541   1.000
    C733    C    0.66932   0.95922   0.38447   1.000
    C734    C    0.68362   0.93723   0.39931   1.000
    C735    C    0.71180   0.92640   0.38940   1.000
    C736    C    0.71360   0.01390   0.25660   1.000
    C737    C    0.70010   0.02310   0.28670   1.000
    O246    O    0.68039   0.96974   0.36132   1.000
    C738    C    0.69100   0.00860   0.27660   1.000
    O247    O    0.64617   0.47008   0.89541   1.000
    C739    C    0.66932   0.45922   0.88447   1.000
    C740    C    0.68362   0.43723   0.89931   1.000
    C741    C    0.71180   0.42640   0.88940   1.000
    C742    C    0.71360   0.51390   0.75660   1.000
    C743    C    0.70010   0.52310   0.78670   1.000
    O248    O    0.68039   0.46974   0.86132   1.000
    C744    C    0.69100   0.50860   0.77660   1.000
    O249    O    0.14617   0.02992   0.10459   1.000
    C745    C    0.16932   0.04078   0.11553   1.000
    C746    C    0.18362   0.06277   0.10069   1.000
    C747    C    0.21180   0.07360   0.11060   1.000
    C748    C    0.21360   0.98610   0.24340   1.000
    C749    C    0.20010   0.97690   0.21330   1.000
    O250    O    0.18039   0.03026   0.13868   1.000
    C750    C    0.19100   0.99140   0.22340   1.000
    O251    O    0.14617   0.52992   0.60459   1.000
    C751    C    0.16932   0.54078   0.61553   1.000
    C752    C    0.18362   0.56277   0.60069   1.000
    C753    C    0.21180   0.57360   0.61060   1.000
    C754    C    0.21360   0.48610   0.74340   1.000
    C755    C    0.20010   0.47690   0.71330   1.000
    O252    O    0.18039   0.53026   0.63868   1.000
    C756    C    0.19100   0.49140   0.72340   1.000
    O253    O    0.64617   0.02992   0.60459   1.000
    C757    C    0.66932   0.04078   0.61553   1.000
    C758    C    0.68362   0.06277   0.60069   1.000
    C759    C    0.71180   0.07360   0.61060   1.000
    C760    C    0.71360   0.98610   0.74340   1.000
    C761    C    0.70010   0.97690   0.71330   1.000
    O254    O    0.68039   0.03026   0.63868   1.000
    C762    C    0.69100   0.99140   0.72340   1.000
    O255    O    0.64617   0.52992   0.10459   1.000
    C763    C    0.66932   0.54078   0.11553   1.000
    C764    C    0.68362   0.56277   0.10069   1.000
    C765    C    0.71180   0.57360   0.11060   1.000
    C766    C    0.71360   0.48610   0.24340   1.000
    C767    C    0.70010   0.47690   0.21330   1.000
    O256    O    0.68039   0.53026   0.13868   1.000
    C768    C    0.69100   0.49140   0.22340   1.000
    O257    O    0.89541   0.85383   0.02992   1.000
    C769    C    0.88447   0.83068   0.04078   1.000
    C770    C    0.89931   0.81638   0.06277   1.000
    C771    C    0.88940   0.78820   0.07360   1.000
    C772    C    0.75660   0.78640   0.98610   1.000
    C773    C    0.78670   0.79990   0.97690   1.000
    O258    O    0.86132   0.81961   0.03026   1.000
    C774    C    0.77660   0.80900   0.99140   1.000
    O259    O    0.89541   0.35383   0.52992   1.000
    C775    C    0.88447   0.33068   0.54078   1.000
    C776    C    0.89931   0.31638   0.56277   1.000
    C777    C    0.88940   0.28820   0.57360   1.000
    C778    C    0.75660   0.28640   0.48610   1.000
    C779    C    0.78670   0.29990   0.47690   1.000
    O260    O    0.86132   0.31961   0.53026   1.000
    C780    C    0.77660   0.30900   0.49140   1.000
    O261    O    0.39541   0.85383   0.52992   1.000
    C781    C    0.38447   0.83068   0.54078   1.000
    C782    C    0.39931   0.81638   0.56277   1.000
    C783    C    0.38940   0.78820   0.57360   1.000
    C784    C    0.25660   0.78640   0.48610   1.000
    C785    C    0.28670   0.79990   0.47690   1.000
    O262    O    0.36132   0.81961   0.53026   1.000
    C786    C    0.27660   0.80900   0.49140   1.000
    O263    O    0.39541   0.35383   0.02992   1.000
    C787    C    0.38447   0.33068   0.04078   1.000
    C788    C    0.39931   0.31638   0.06277   1.000
    C789    C    0.38940   0.28820   0.07360   1.000
    C790    C    0.25660   0.28640   0.98610   1.000
    C791    C    0.28670   0.29990   0.97690   1.000
    O264    O    0.36132   0.31961   0.03026   1.000
    C792    C    0.27660   0.30900   0.99140   1.000
    O265    O    0.10459   0.85383   0.97008   1.000
    C793    C    0.11553   0.83068   0.95922   1.000
    C794    C    0.10069   0.81638   0.93723   1.000
    C795    C    0.11060   0.78820   0.92640   1.000
    C796    C    0.24340   0.78640   0.01390   1.000
    C797    C    0.21330   0.79990   0.02310   1.000
    O266    O    0.13868   0.81961   0.96974   1.000
    C798    C    0.22340   0.80900   0.00860   1.000
    O267    O    0.10459   0.35383   0.47008   1.000
    C799    C    0.11553   0.33068   0.45922   1.000
    C800    C    0.10069   0.31638   0.43723   1.000
    C801    C    0.11060   0.28820   0.42640   1.000
    C802    C    0.24340   0.28640   0.51390   1.000
    C803    C    0.21330   0.29990   0.52310   1.000
    O268    O    0.13868   0.31961   0.46974   1.000
    C804    C    0.22340   0.30900   0.50860   1.000
    O269    O    0.60459   0.85383   0.47008   1.000
    C805    C    0.61553   0.83068   0.45922   1.000
    C806    C    0.60069   0.81638   0.43723   1.000
    C807    C    0.61060   0.78820   0.42640   1.000
    C808    C    0.74340   0.78640   0.51390   1.000
    C809    C    0.71330   0.79990   0.52310   1.000
    O270    O    0.63868   0.81961   0.46974   1.000
    C810    C    0.72340   0.80900   0.50860   1.000
    O271    O    0.60459   0.35383   0.97008   1.000
    C811    C    0.61553   0.33068   0.95922   1.000
    C812    C    0.60069   0.31638   0.93723   1.000
    C813    C    0.61060   0.28820   0.92640   1.000
    C814    C    0.74340   0.28640   0.01390   1.000
    C815    C    0.71330   0.29990   0.02310   1.000
    O272    O    0.63868   0.31961   0.96974   1.000
    C816    C    0.72340   0.30900   0.00860   1.000
    O273    O    0.89541   0.14617   0.97008   1.000
    C817    C    0.88447   0.16932   0.95922   1.000
    C818    C    0.89931   0.18362   0.93723   1.000
    C819    C    0.88940   0.21180   0.92640   1.000
    C820    C    0.75660   0.21360   0.01390   1.000
    C821    C    0.78670   0.20010   0.02310   1.000
    O274    O    0.86132   0.18039   0.96974   1.000
    C822    C    0.77660   0.19100   0.00860   1.000
    O275    O    0.89541   0.64617   0.47008   1.000
    C823    C    0.88447   0.66932   0.45922   1.000
    C824    C    0.89931   0.68362   0.43723   1.000
    C825    C    0.88940   0.71180   0.42640   1.000
    C826    C    0.75660   0.71360   0.51390   1.000
    C827    C    0.78670   0.70010   0.52310   1.000
    O276    O    0.86132   0.68039   0.46974   1.000
    C828    C    0.77660   0.69100   0.50860   1.000
    O277    O    0.39541   0.14617   0.47008   1.000
    C829    C    0.38447   0.16932   0.45922   1.000
    C830    C    0.39931   0.18362   0.43723   1.000
    C831    C    0.38940   0.21180   0.42640   1.000
    C832    C    0.25660   0.21360   0.51390   1.000
    C833    C    0.28670   0.20010   0.52310   1.000
    O278    O    0.36132   0.18039   0.46974   1.000
    C834    C    0.27660   0.19100   0.50860   1.000
    O279    O    0.39541   0.64617   0.97008   1.000
    C835    C    0.38447   0.66932   0.95922   1.000
    C836    C    0.39931   0.68362   0.93723   1.000
    C837    C    0.38940   0.71180   0.92640   1.000
    C838    C    0.25660   0.71360   0.01390   1.000
    C839    C    0.28670   0.70010   0.02310   1.000
    O280    O    0.36132   0.68039   0.96974   1.000
    C840    C    0.27660   0.69100   0.00860   1.000
    O281    O    0.10459   0.14617   0.02992   1.000
    C841    C    0.11553   0.16932   0.04078   1.000
    C842    C    0.10069   0.18362   0.06277   1.000
    C843    C    0.11060   0.21180   0.07360   1.000
    C844    C    0.24340   0.21360   0.98610   1.000
    C845    C    0.21330   0.20010   0.97690   1.000
    O282    O    0.13868   0.18039   0.03026   1.000
    C846    C    0.22340   0.19100   0.99140   1.000
    O283    O    0.10459   0.64617   0.52992   1.000
    C847    C    0.11553   0.66932   0.54078   1.000
    C848    C    0.10069   0.68362   0.56277   1.000
    C849    C    0.11060   0.71180   0.57360   1.000
    C850    C    0.24340   0.71360   0.48610   1.000
    C851    C    0.21330   0.70010   0.47690   1.000
    O284    O    0.13868   0.68039   0.53026   1.000
    C852    C    0.22340   0.69100   0.49140   1.000
    O285    O    0.60459   0.14617   0.52992   1.000
    C853    C    0.61553   0.16932   0.54078   1.000
    C854    C    0.60069   0.18362   0.56277   1.000
    C855    C    0.61060   0.21180   0.57360   1.000
    C856    C    0.74340   0.21360   0.48610   1.000
    C857    C    0.71330   0.20010   0.47690   1.000
    O286    O    0.63868   0.18039   0.53026   1.000
    C858    C    0.72340   0.19100   0.49140   1.000
    O287    O    0.60459   0.64617   0.02992   1.000
    C859    C    0.61553   0.66932   0.04078   1.000
    C860    C    0.60069   0.68362   0.06277   1.000
    C861    C    0.61060   0.71180   0.07360   1.000
    C862    C    0.74340   0.71360   0.98610   1.000
    C863    C    0.71330   0.70010   0.97690   1.000
    O288    O    0.63868   0.68039   0.03026   1.000
    C864    C    0.72340   0.69100   0.99140   1.000
    O289    O    0.89541   0.02992   0.14617   1.000
    C865    C    0.88447   0.04078   0.16932   1.000
    C866    C    0.89931   0.06277   0.18362   1.000
    C867    C    0.88940   0.07360   0.21180   1.000
    C868    C    0.75660   0.98610   0.21360   1.000
    C869    C    0.78670   0.97690   0.20010   1.000
    O290    O    0.86132   0.03026   0.18039   1.000
    C870    C    0.77660   0.99140   0.19100   1.000
    O291    O    0.89541   0.52992   0.64617   1.000
    C871    C    0.88447   0.54078   0.66932   1.000
    C872    C    0.89931   0.56277   0.68362   1.000
    C873    C    0.88940   0.57360   0.71180   1.000
    C874    C    0.75660   0.48610   0.71360   1.000
    C875    C    0.78670   0.47690   0.70010   1.000
    O292    O    0.86132   0.53026   0.68039   1.000
    C876    C    0.77660   0.49140   0.69100   1.000
    O293    O    0.39541   0.02992   0.64617   1.000
    C877    C    0.38447   0.04078   0.66932   1.000
    C878    C    0.39931   0.06277   0.68362   1.000
    C879    C    0.38940   0.07360   0.71180   1.000
    C880    C    0.25660   0.98610   0.71360   1.000
    C881    C    0.28670   0.97690   0.70010   1.000
    O294    O    0.36132   0.03026   0.68039   1.000
    C882    C    0.27660   0.99140   0.69100   1.000
    O295    O    0.39541   0.52992   0.14617   1.000
    C883    C    0.38447   0.54078   0.16932   1.000
    C884    C    0.39931   0.56277   0.18362   1.000
    C885    C    0.38940   0.57360   0.21180   1.000
    C886    C    0.25660   0.48610   0.21360   1.000
    C887    C    0.28670   0.47690   0.20010   1.000
    O296    O    0.36132   0.53026   0.18039   1.000
    C888    C    0.27660   0.49140   0.19100   1.000
    O297    O    0.10459   0.97008   0.14617   1.000
    C889    C    0.11553   0.95922   0.16932   1.000
    C890    C    0.10069   0.93723   0.18362   1.000
    C891    C    0.11060   0.92640   0.21180   1.000
    C892    C    0.24340   0.01390   0.21360   1.000
    C893    C    0.21330   0.02310   0.20010   1.000
    O298    O    0.13868   0.96974   0.18039   1.000
    C894    C    0.22340   0.00860   0.19100   1.000
    O299    O    0.10459   0.47008   0.64617   1.000
    C895    C    0.11553   0.45922   0.66932   1.000
    C896    C    0.10069   0.43723   0.68362   1.000
    C897    C    0.11060   0.42640   0.71180   1.000
    C898    C    0.24340   0.51390   0.71360   1.000
    C899    C    0.21330   0.52310   0.70010   1.000
    O300    O    0.13868   0.46974   0.68039   1.000
    C900    C    0.22340   0.50860   0.69100   1.000
    O301    O    0.60459   0.97008   0.64617   1.000
    C901    C    0.61553   0.95922   0.66932   1.000
    C902    C    0.60069   0.93723   0.68362   1.000
    C903    C    0.61060   0.92640   0.71180   1.000
    C904    C    0.74340   0.01390   0.71360   1.000
    C905    C    0.71330   0.02310   0.70010   1.000
    O302    O    0.63868   0.96974   0.68039   1.000
    C906    C    0.72340   0.00860   0.69100   1.000
    O303    O    0.60459   0.47008   0.14617   1.000
    C907    C    0.61553   0.45922   0.16932   1.000
    C908    C    0.60069   0.43723   0.18362   1.000
    C909    C    0.61060   0.42640   0.21180   1.000
    C910    C    0.74340   0.51390   0.21360   1.000
    C911    C    0.71330   0.52310   0.20010   1.000
    O304    O    0.63868   0.46974   0.18039   1.000
    C912    C    0.72340   0.50860   0.19100   1.000
    O305    O    0.89541   0.97008   0.85383   1.000
    C913    C    0.88447   0.95922   0.83068   1.000
    C914    C    0.89931   0.93723   0.81638   1.000
    C915    C    0.88940   0.92640   0.78820   1.000
    C916    C    0.75660   0.01390   0.78640   1.000
    C917    C    0.78670   0.02310   0.79990   1.000
    O306    O    0.86132   0.96974   0.81961   1.000
    C918    C    0.77660   0.00860   0.80900   1.000
    O307    O    0.89541   0.47008   0.35383   1.000
    C919    C    0.88447   0.45922   0.33068   1.000
    C920    C    0.89931   0.43723   0.31638   1.000
    C921    C    0.88940   0.42640   0.28820   1.000
    C922    C    0.75660   0.51390   0.28640   1.000
    C923    C    0.78670   0.52310   0.29990   1.000
    O308    O    0.86132   0.46974   0.31961   1.000
    C924    C    0.77660   0.50860   0.30900   1.000
    O309    O    0.39541   0.97008   0.35383   1.000
    C925    C    0.38447   0.95922   0.33068   1.000
    C926    C    0.39931   0.93723   0.31638   1.000
    C927    C    0.38940   0.92640   0.28820   1.000
    C928    C    0.25660   0.01390   0.28640   1.000
    C929    C    0.28670   0.02310   0.29990   1.000
    O310    O    0.36132   0.96974   0.31961   1.000
    C930    C    0.27660   0.00860   0.30900   1.000
    O311    O    0.39541   0.47008   0.85383   1.000
    C931    C    0.38447   0.45922   0.83068   1.000
    C932    C    0.39931   0.43723   0.81638   1.000
    C933    C    0.38940   0.42640   0.78820   1.000
    C934    C    0.25660   0.51390   0.78640   1.000
    C935    C    0.28670   0.52310   0.79990   1.000
    O312    O    0.36132   0.46974   0.81961   1.000
    C936    C    0.27660   0.50860   0.80900   1.000
    O313    O    0.10459   0.02992   0.85383   1.000
    C937    C    0.11553   0.04078   0.83068   1.000
    C938    C    0.10069   0.06277   0.81638   1.000
    C939    C    0.11060   0.07360   0.78820   1.000
    C940    C    0.24340   0.98610   0.78640   1.000
    C941    C    0.21330   0.97690   0.79990   1.000
    O314    O    0.13868   0.03026   0.81961   1.000
    C942    C    0.22340   0.99140   0.80900   1.000
    O315    O    0.10459   0.52992   0.35383   1.000
    C943    C    0.11553   0.54078   0.33068   1.000
    C944    C    0.10069   0.56277   0.31638   1.000
    C945    C    0.11060   0.57360   0.28820   1.000
    C946    C    0.24340   0.48610   0.28640   1.000
    C947    C    0.21330   0.47690   0.29990   1.000
    O316    O    0.13868   0.53026   0.31961   1.000
    C948    C    0.22340   0.49140   0.30900   1.000
    O317    O    0.60459   0.02992   0.35383   1.000
    C949    C    0.61553   0.04078   0.33068   1.000
    C950    C    0.60069   0.06277   0.31638   1.000
    C951    C    0.61060   0.07360   0.28820   1.000
    C952    C    0.74340   0.98610   0.28640   1.000
    C953    C    0.71330   0.97690   0.29990   1.000
    O318    O    0.63868   0.03026   0.31961   1.000
    C954    C    0.72340   0.99140   0.30900   1.000
    O319    O    0.60459   0.52992   0.85383   1.000
    C955    C    0.61553   0.54078   0.83068   1.000
    C956    C    0.60069   0.56277   0.81638   1.000
    C957    C    0.61060   0.57360   0.78820   1.000
    C958    C    0.74340   0.48610   0.78640   1.000
    C959    C    0.71330   0.47690   0.79990   1.000
    O320    O    0.63868   0.53026   0.81961   1.000
    C960    C    0.72340   0.49140   0.80900   1.000
    O321    O    0.02992   0.85383   0.10459   1.000
    C961    C    0.04078   0.83068   0.11553   1.000
    C962    C    0.06277   0.81638   0.10069   1.000
    C963    C    0.07360   0.78820   0.11060   1.000
    C964    C    0.98610   0.78640   0.24340   1.000
    C965    C    0.97690   0.79990   0.21330   1.000
    O322    O    0.03026   0.81961   0.13868   1.000
    C966    C    0.99140   0.80900   0.22340   1.000
    O323    O    0.02992   0.35383   0.60459   1.000
    C967    C    0.04078   0.33068   0.61553   1.000
    C968    C    0.06277   0.31638   0.60069   1.000
    C969    C    0.07360   0.28820   0.61060   1.000
    C970    C    0.98610   0.28640   0.74340   1.000
    C971    C    0.97690   0.29990   0.71330   1.000
    O324    O    0.03026   0.31961   0.63868   1.000
    C972    C    0.99140   0.30900   0.72340   1.000
    O325    O    0.52992   0.85383   0.60459   1.000
    C973    C    0.54078   0.83068   0.61553   1.000
    C974    C    0.56277   0.81638   0.60069   1.000
    C975    C    0.57360   0.78820   0.61060   1.000
    C976    C    0.48610   0.78640   0.74340   1.000
    C977    C    0.47690   0.79990   0.71330   1.000
    O326    O    0.53026   0.81961   0.63868   1.000
    C978    C    0.49140   0.80900   0.72340   1.000
    O327    O    0.52992   0.35383   0.10459   1.000
    C979    C    0.54078   0.33068   0.11553   1.000
    C980    C    0.56277   0.31638   0.10069   1.000
    C981    C    0.57360   0.28820   0.11060   1.000
    C982    C    0.48610   0.28640   0.24340   1.000
    C983    C    0.47690   0.29990   0.21330   1.000
    O328    O    0.53026   0.31961   0.13868   1.000
    C984    C    0.49140   0.30900   0.22340   1.000
    O329    O    0.97008   0.85383   0.89541   1.000
    C985    C    0.95922   0.83068   0.88447   1.000
    C986    C    0.93723   0.81638   0.89931   1.000
    C987    C    0.92640   0.78820   0.88940   1.000
    C988    C    0.01390   0.78640   0.75660   1.000
    C989    C    0.02310   0.79990   0.78670   1.000
    O330    O    0.96974   0.81961   0.86132   1.000
    C990    C    0.00860   0.80900   0.77660   1.000
    O331    O    0.97008   0.35383   0.39541   1.000
    C991    C    0.95922   0.33068   0.38447   1.000
    C992    C    0.93723   0.31638   0.39931   1.000
    C993    C    0.92640   0.28820   0.38940   1.000
    C994    C    0.01390   0.28640   0.25660   1.000
    C995    C    0.02310   0.29990   0.28670   1.000
    O332    O    0.96974   0.31961   0.36132   1.000
    C996    C    0.00860   0.30900   0.27660   1.000
    O333    O    0.47008   0.85383   0.39541   1.000
    C997    C    0.45922   0.83068   0.38447   1.000
    C998    C    0.43723   0.81638   0.39931   1.000
    C999    C    0.42640   0.78820   0.38940   1.000
    C1000   C    0.51390   0.78640   0.25660   1.000
    C1001   C    0.52310   0.79990   0.28670   1.000
    O334    O    0.46974   0.81961   0.36132   1.000
    C1002   C    0.50860   0.80900   0.27660   1.000
    O335    O    0.47008   0.35383   0.89541   1.000
    C1003   C    0.45922   0.33068   0.88447   1.000
    C1004   C    0.43723   0.31638   0.89931   1.000
    C1005   C    0.42640   0.28820   0.88940   1.000
    C1006   C    0.51390   0.28640   0.75660   1.000
    C1007   C    0.52310   0.29990   0.78670   1.000
    O336    O    0.46974   0.31961   0.86132   1.000
    C1008   C    0.50860   0.30900   0.77660   1.000
    O337    O    0.97008   0.14617   0.10459   1.000
    C1009   C    0.95922   0.16932   0.11553   1.000
    C1010   C    0.93723   0.18362   0.10069   1.000
    C1011   C    0.92640   0.21180   0.11060   1.000
    C1012   C    0.01390   0.21360   0.24340   1.000
    C1013   C    0.02310   0.20010   0.21330   1.000
    O338    O    0.96974   0.18039   0.13868   1.000
    C1014   C    0.00860   0.19100   0.22340   1.000
    O339    O    0.97008   0.64617   0.60459   1.000
    C1015   C    0.95922   0.66932   0.61553   1.000
    C1016   C    0.93723   0.68362   0.60069   1.000
    C1017   C    0.92640   0.71180   0.61060   1.000
    C1018   C    0.01390   0.71360   0.74340   1.000
    C1019   C    0.02310   0.70010   0.71330   1.000
    O340    O    0.96974   0.68039   0.63868   1.000
    C1020   C    0.00860   0.69100   0.72340   1.000
    O341    O    0.47008   0.14617   0.60459   1.000
    C1021   C    0.45922   0.16932   0.61553   1.000
    C1022   C    0.43723   0.18362   0.60069   1.000
    C1023   C    0.42640   0.21180   0.61060   1.000
    C1024   C    0.51390   0.21360   0.74340   1.000
    C1025   C    0.52310   0.20010   0.71330   1.000
    O342    O    0.46974   0.18039   0.63868   1.000
    C1026   C    0.50860   0.19100   0.72340   1.000
    O343    O    0.47008   0.64617   0.10459   1.000
    C1027   C    0.45922   0.66932   0.11553   1.000
    C1028   C    0.43723   0.68362   0.10069   1.000
    C1029   C    0.42640   0.71180   0.11060   1.000
    C1030   C    0.51390   0.71360   0.24340   1.000
    C1031   C    0.52310   0.70010   0.21330   1.000
    O344    O    0.46974   0.68039   0.13868   1.000
    C1032   C    0.50860   0.69100   0.22340   1.000
    O345    O    0.02992   0.14617   0.89541   1.000
    C1033   C    0.04078   0.16932   0.88447   1.000
    C1034   C    0.06277   0.18362   0.89931   1.000
    C1035   C    0.07360   0.21180   0.88940   1.000
    C1036   C    0.98610   0.21360   0.75660   1.000
    C1037   C    0.97690   0.20010   0.78670   1.000
    O346    O    0.03026   0.18039   0.86132   1.000
    C1038   C    0.99140   0.19100   0.77660   1.000
    O347    O    0.02992   0.64617   0.39541   1.000
    C1039   C    0.04078   0.66932   0.38447   1.000
    C1040   C    0.06277   0.68362   0.39931   1.000
    C1041   C    0.07360   0.71180   0.38940   1.000
    C1042   C    0.98610   0.71360   0.25660   1.000
    C1043   C    0.97690   0.70010   0.28670   1.000
    O348    O    0.03026   0.68039   0.36132   1.000
    C1044   C    0.99140   0.69100   0.27660   1.000
    O349    O    0.52992   0.14617   0.39541   1.000
    C1045   C    0.54078   0.16932   0.38447   1.000
    C1046   C    0.56277   0.18362   0.39931   1.000
    C1047   C    0.57360   0.21180   0.38940   1.000
    C1048   C    0.48610   0.21360   0.25660   1.000
    C1049   C    0.47690   0.20010   0.28670   1.000
    O350    O    0.53026   0.18039   0.36132   1.000
    C1050   C    0.49140   0.19100   0.27660   1.000
    O351    O    0.52992   0.64617   0.89541   1.000
    C1051   C    0.54078   0.66932   0.88447   1.000
    C1052   C    0.56277   0.68362   0.89931   1.000
    C1053   C    0.57360   0.71180   0.88940   1.000
    C1054   C    0.48610   0.71360   0.75660   1.000
    C1055   C    0.47690   0.70010   0.78670   1.000
    O352    O    0.53026   0.68039   0.86132   1.000
    C1056   C    0.49140   0.69100   0.77660   1.000
    O353    O    0.85383   0.89541   0.97008   1.000
    C1057   C    0.83068   0.88447   0.95922   1.000
    C1058   C    0.81638   0.89931   0.93723   1.000
    C1059   C    0.78820   0.88940   0.92640   1.000
    C1060   C    0.78640   0.75660   0.01390   1.000
    C1061   C    0.79990   0.78670   0.02310   1.000
    O354    O    0.81961   0.86132   0.96974   1.000
    C1062   C    0.80900   0.77660   0.00860   1.000
    O355    O    0.85383   0.39541   0.47008   1.000
    C1063   C    0.83068   0.38447   0.45922   1.000
    C1064   C    0.81638   0.39931   0.43723   1.000
    C1065   C    0.78820   0.38940   0.42640   1.000
    C1066   C    0.78640   0.25660   0.51390   1.000
    C1067   C    0.79990   0.28670   0.52310   1.000
    O356    O    0.81961   0.36132   0.46974   1.000
    C1068   C    0.80900   0.27660   0.50860   1.000
    O357    O    0.35383   0.89541   0.47008   1.000
    C1069   C    0.33068   0.88447   0.45922   1.000
    C1070   C    0.31638   0.89931   0.43723   1.000
    C1071   C    0.28820   0.88940   0.42640   1.000
    C1072   C    0.28640   0.75660   0.51390   1.000
    C1073   C    0.29990   0.78670   0.52310   1.000
    O358    O    0.31961   0.86132   0.46974   1.000
    C1074   C    0.30900   0.77660   0.50860   1.000
    O359    O    0.35383   0.39541   0.97008   1.000
    C1075   C    0.33068   0.38447   0.95922   1.000
    C1076   C    0.31638   0.39931   0.93723   1.000
    C1077   C    0.28820   0.38940   0.92640   1.000
    C1078   C    0.28640   0.25660   0.01390   1.000
    C1079   C    0.29990   0.28670   0.02310   1.000
    O360    O    0.31961   0.36132   0.96974   1.000
    C1080   C    0.30900   0.27660   0.00860   1.000
    O361    O    0.85383   0.10459   0.02992   1.000
    C1081   C    0.83068   0.11553   0.04078   1.000
    C1082   C    0.81638   0.10069   0.06277   1.000
    C1083   C    0.78820   0.11060   0.07360   1.000
    C1084   C    0.78640   0.24340   0.98610   1.000
    C1085   C    0.79990   0.21330   0.97690   1.000
    O362    O    0.81961   0.13868   0.03026   1.000
    C1086   C    0.80900   0.22340   0.99140   1.000
    O363    O    0.85383   0.60459   0.52992   1.000
    C1087   C    0.83068   0.61553   0.54078   1.000
    C1088   C    0.81638   0.60069   0.56277   1.000
    C1089   C    0.78820   0.61060   0.57360   1.000
    C1090   C    0.78640   0.74340   0.48610   1.000
    C1091   C    0.79990   0.71330   0.47690   1.000
    O364    O    0.81961   0.63868   0.53026   1.000
    C1092   C    0.80900   0.72340   0.49140   1.000
    O365    O    0.35383   0.10459   0.52992   1.000
    C1093   C    0.33068   0.11553   0.54078   1.000
    C1094   C    0.31638   0.10069   0.56277   1.000
    C1095   C    0.28820   0.11060   0.57360   1.000
    C1096   C    0.28640   0.24340   0.48610   1.000
    C1097   C    0.29990   0.21330   0.47690   1.000
    O366    O    0.31961   0.13868   0.53026   1.000
    C1098   C    0.30900   0.22340   0.49140   1.000
    O367    O    0.35383   0.60459   0.02992   1.000
    C1099   C    0.33068   0.61553   0.04078   1.000
    C1100   C    0.31638   0.60069   0.06277   1.000
    C1101   C    0.28820   0.61060   0.07360   1.000
    C1102   C    0.28640   0.74340   0.98610   1.000
    C1103   C    0.29990   0.71330   0.97690   1.000
    O368    O    0.31961   0.63868   0.03026   1.000
    C1104   C    0.30900   0.72340   0.99140   1.000
    O369    O    0.14617   0.89541   0.02992   1.000
    C1105   C    0.16932   0.88447   0.04078   1.000
    C1106   C    0.18362   0.89931   0.06277   1.000
    C1107   C    0.21180   0.88940   0.07360   1.000
    C1108   C    0.21360   0.75660   0.98610   1.000
    C1109   C    0.20010   0.78670   0.97690   1.000
    O370    O    0.18039   0.86132   0.03026   1.000
    C1110   C    0.19100   0.77660   0.99140   1.000
    O371    O    0.14617   0.39541   0.52992   1.000
    C1111   C    0.16932   0.38447   0.54078   1.000
    C1112   C    0.18362   0.39931   0.56277   1.000
    C1113   C    0.21180   0.38940   0.57360   1.000
    C1114   C    0.21360   0.25660   0.48610   1.000
    C1115   C    0.20010   0.28670   0.47690   1.000
    O372    O    0.18039   0.36132   0.53026   1.000
    C1116   C    0.19100   0.27660   0.49140   1.000
    O373    O    0.64617   0.89541   0.52992   1.000
    C1117   C    0.66932   0.88447   0.54078   1.000
    C1118   C    0.68362   0.89931   0.56277   1.000
    C1119   C    0.71180   0.88940   0.57360   1.000
    C1120   C    0.71360   0.75660   0.48610   1.000
    C1121   C    0.70010   0.78670   0.47690   1.000
    O374    O    0.68039   0.86132   0.53026   1.000
    C1122   C    0.69100   0.77660   0.49140   1.000
    O375    O    0.64617   0.39541   0.02992   1.000
    C1123   C    0.66932   0.38447   0.04078   1.000
    C1124   C    0.68362   0.39931   0.06277   1.000
    C1125   C    0.71180   0.38940   0.07360   1.000
    C1126   C    0.71360   0.25660   0.98610   1.000
    C1127   C    0.70010   0.28670   0.97690   1.000
    O376    O    0.68039   0.36132   0.03026   1.000
    C1128   C    0.69100   0.27660   0.99140   1.000
    O377    O    0.14617   0.10459   0.97008   1.000
    C1129   C    0.16932   0.11553   0.95922   1.000
    C1130   C    0.18362   0.10069   0.93723   1.000
    C1131   C    0.21180   0.11060   0.92640   1.000
    C1132   C    0.21360   0.24340   0.01390   1.000
    C1133   C    0.20010   0.21330   0.02310   1.000
    O378    O    0.18039   0.13868   0.96974   1.000
    C1134   C    0.19100   0.22340   0.00860   1.000
    O379    O    0.14617   0.60459   0.47008   1.000
    C1135   C    0.16932   0.61553   0.45922   1.000
    C1136   C    0.18362   0.60069   0.43723   1.000
    C1137   C    0.21180   0.61060   0.42640   1.000
    C1138   C    0.21360   0.74340   0.51390   1.000
    C1139   C    0.20010   0.71330   0.52310   1.000
    O380    O    0.18039   0.63868   0.46974   1.000
    C1140   C    0.19100   0.72340   0.50860   1.000
    O381    O    0.64617   0.10459   0.47008   1.000
    C1141   C    0.66932   0.11553   0.45922   1.000
    C1142   C    0.68362   0.10069   0.43723   1.000
    C1143   C    0.71180   0.11060   0.42640   1.000
    C1144   C    0.71360   0.24340   0.51390   1.000
    C1145   C    0.70010   0.21330   0.52310   1.000
    O382    O    0.68039   0.13868   0.46974   1.000
    C1146   C    0.69100   0.22340   0.50860   1.000
    O383    O    0.64617   0.60459   0.97008   1.000
    C1147   C    0.66932   0.61553   0.95922   1.000
    C1148   C    0.68362   0.60069   0.93723   1.000
    C1149   C    0.71180   0.61060   0.92640   1.000
    C1150   C    0.71360   0.74340   0.01390   1.000
    C1151   C    0.70010   0.71330   0.02310   1.000
    O384    O    0.68039   0.63868   0.96974   1.000
    C1152   C    0.69100   0.72340   0.00860   1.000
    Cu1     Cu   0.00000   0.12255   0.12255   1.000
    Cu2     Cu   0.00000   0.16299   0.16299   1.000
    N1      N    0.00000   0.19628   0.19628   1.000
    C1153   C    0.00000   0.23798   0.23798   1.000
    Cu3     Cu   0.00000   0.62255   0.62255   1.000
    Cu4     Cu   0.00000   0.66299   0.66299   1.000
    N2      N    0.00000   0.69628   0.69628   1.000
    C1154   C    0.00000   0.73798   0.73798   1.000
    Cu5     Cu   0.50000   0.12255   0.62255   1.000
    Cu6     Cu   0.50000   0.16299   0.66299   1.000
    N3      N    0.50000   0.19628   0.69628   1.000
    C1155   C    0.50000   0.23798   0.73798   1.000
    Cu7     Cu   0.50000   0.62255   0.12255   1.000
    Cu8     Cu   0.50000   0.66299   0.16299   1.000
    N4      N    0.50000   0.69628   0.19628   1.000
    C1156   C    0.50000   0.73798   0.23798   1.000
    Cu9     Cu   0.00000   0.87745   0.12255   1.000
    Cu10    Cu   0.00000   0.83701   0.16299   1.000
    N5      N    0.00000   0.80372   0.19628   1.000
    C1157   C    0.00000   0.76202   0.23798   1.000
    Cu11    Cu   0.00000   0.37745   0.62255   1.000
    Cu12    Cu   0.00000   0.33701   0.66299   1.000
    N6      N    0.00000   0.30372   0.69628   1.000
    C1158   C    0.00000   0.26202   0.73798   1.000
    Cu13    Cu   0.50000   0.87745   0.62255   1.000
    Cu14    Cu   0.50000   0.83701   0.66299   1.000
    N7      N    0.50000   0.80372   0.69628   1.000
    C1159   C    0.50000   0.76202   0.73798   1.000
    Cu15    Cu   0.50000   0.37745   0.12255   1.000
    Cu16    Cu   0.50000   0.33701   0.16299   1.000
    N8      N    0.50000   0.30372   0.19628   1.000
    C1160   C    0.50000   0.26202   0.23798   1.000
    Cu17    Cu   0.00000   0.12255   0.87745   1.000
    Cu18    Cu   0.00000   0.16299   0.83701   1.000
    N9      N    0.00000   0.19628   0.80372   1.000
    C1161   C    0.00000   0.23798   0.76202   1.000
    Cu19    Cu   0.00000   0.62255   0.37745   1.000
    Cu20    Cu   0.00000   0.66299   0.33701   1.000
    N10     N    0.00000   0.69628   0.30372   1.000
    C1162   C    0.00000   0.73798   0.26202   1.000
    Cu21    Cu   0.50000   0.12255   0.37745   1.000
    Cu22    Cu   0.50000   0.16299   0.33701   1.000
    N11     N    0.50000   0.19628   0.30372   1.000
    C1163   C    0.50000   0.23798   0.26202   1.000
    Cu23    Cu   0.50000   0.62255   0.87745   1.000
    Cu24    Cu   0.50000   0.66299   0.83701   1.000
    N12     N    0.50000   0.69628   0.80372   1.000
    C1164   C    0.50000   0.73798   0.76202   1.000
    Cu25    Cu   0.00000   0.87745   0.87745   1.000
    Cu26    Cu   0.00000   0.83701   0.83701   1.000
    N13     N    0.00000   0.80372   0.80372   1.000
    C1165   C    0.00000   0.76202   0.76202   1.000
    Cu27    Cu   0.00000   0.37745   0.37745   1.000
    Cu28    Cu   0.00000   0.33701   0.33701   1.000
    N14     N    0.00000   0.30372   0.30372   1.000
    C1166   C    0.00000   0.26202   0.26202   1.000
    Cu29    Cu   0.50000   0.87745   0.37745   1.000
    Cu30    Cu   0.50000   0.83701   0.33701   1.000
    N15     N    0.50000   0.80372   0.30372   1.000
    C1167   C    0.50000   0.76202   0.26202   1.000
    Cu31    Cu   0.50000   0.37745   0.87745   1.000
    Cu32    Cu   0.50000   0.33701   0.83701   1.000
    N16     N    0.50000   0.30372   0.80372   1.000
    C1168   C    0.50000   0.26202   0.76202   1.000
    Cu33    Cu   0.12255   0.00000   0.12255   1.000
    Cu34    Cu   0.16299   0.00000   0.16299   1.000
    N17     N    0.19628   0.00000   0.19628   1.000
    C1169   C    0.23798   0.00000   0.23798   1.000
    Cu35    Cu   0.12255   0.50000   0.62255   1.000
    Cu36    Cu   0.16299   0.50000   0.66299   1.000
    N18     N    0.19628   0.50000   0.69628   1.000
    C1170   C    0.23798   0.50000   0.73798   1.000
    Cu37    Cu   0.62255   0.00000   0.62255   1.000
    Cu38    Cu   0.66299   0.00000   0.66299   1.000
    N19     N    0.69628   0.00000   0.69628   1.000
    C1171   C    0.73798   0.00000   0.73798   1.000
    Cu39    Cu   0.62255   0.50000   0.12255   1.000
    Cu40    Cu   0.66299   0.50000   0.16299   1.000
    N20     N    0.69628   0.50000   0.19628   1.000
    C1172   C    0.73798   0.50000   0.23798   1.000
    Cu41    Cu   0.12255   0.00000   0.87745   1.000
    Cu42    Cu   0.16299   0.00000   0.83701   1.000
    N21     N    0.19628   0.00000   0.80372   1.000
    C1173   C    0.23798   0.00000   0.76202   1.000
    Cu43    Cu   0.12255   0.50000   0.37745   1.000
    Cu44    Cu   0.16299   0.50000   0.33701   1.000
    N22     N    0.19628   0.50000   0.30372   1.000
    C1174   C    0.23798   0.50000   0.26202   1.000
    Cu45    Cu   0.62255   0.00000   0.37745   1.000
    Cu46    Cu   0.66299   0.00000   0.33701   1.000
    N23     N    0.69628   0.00000   0.30372   1.000
    C1175   C    0.73798   0.00000   0.26202   1.000
    Cu47    Cu   0.62255   0.50000   0.87745   1.000
    Cu48    Cu   0.66299   0.50000   0.83701   1.000
    N24     N    0.69628   0.50000   0.80372   1.000
    C1176   C    0.73798   0.50000   0.76202   1.000
    Cu49    Cu   0.87745   0.00000   0.12255   1.000
    Cu50    Cu   0.83701   0.00000   0.16299   1.000
    N25     N    0.80372   0.00000   0.19628   1.000
    C1177   C    0.76202   0.00000   0.23798   1.000
    Cu51    Cu   0.87745   0.50000   0.62255   1.000
    Cu52    Cu   0.83701   0.50000   0.66299   1.000
    N26     N    0.80372   0.50000   0.69628   1.000
    C1178   C    0.76202   0.50000   0.73798   1.000
    Cu53    Cu   0.37745   0.00000   0.62255   1.000
    Cu54    Cu   0.33701   0.00000   0.66299   1.000
    N27     N    0.30372   0.00000   0.69628   1.000
    C1179   C    0.26202   0.00000   0.73798   1.000
    Cu55    Cu   0.37745   0.50000   0.12255   1.000
    Cu56    Cu   0.33701   0.50000   0.16299   1.000
    N28     N    0.30372   0.50000   0.19628   1.000
    C1180   C    0.26202   0.50000   0.23798   1.000
    Cu57    Cu   0.87745   0.00000   0.87745   1.000
    Cu58    Cu   0.83701   0.00000   0.83701   1.000
    N29     N    0.80372   0.00000   0.80372   1.000
    C1181   C    0.76202   0.00000   0.76202   1.000
    Cu59    Cu   0.87745   0.50000   0.37745   1.000
    Cu60    Cu   0.83701   0.50000   0.33701   1.000
    N30     N    0.80372   0.50000   0.30372   1.000
    C1182   C    0.76202   0.50000   0.26202   1.000
    Cu61    Cu   0.37745   0.00000   0.37745   1.000
    Cu62    Cu   0.33701   0.00000   0.33701   1.000
    N31     N    0.30372   0.00000   0.30372   1.000
    C1183   C    0.26202   0.00000   0.26202   1.000
    Cu63    Cu   0.37745   0.50000   0.87745   1.000
    Cu64    Cu   0.33701   0.50000   0.83701   1.000
    N32     N    0.30372   0.50000   0.80372   1.000
    C1184   C    0.26202   0.50000   0.76202   1.000
    Cu65    Cu   0.12255   0.12255   0.00000   1.000
    Cu66    Cu   0.16299   0.16299   0.00000   1.000
    N33     N    0.19628   0.19628   0.00000   1.000
    C1185   C    0.23798   0.23798   0.00000   1.000
    Cu67    Cu   0.12255   0.62255   0.50000   1.000
    Cu68    Cu   0.16299   0.66299   0.50000   1.000
    N34     N    0.19628   0.69628   0.50000   1.000
    C1186   C    0.23798   0.73798   0.50000   1.000
    Cu69    Cu   0.62255   0.12255   0.50000   1.000
    Cu70    Cu   0.66299   0.16299   0.50000   1.000
    N35     N    0.69628   0.19628   0.50000   1.000
    C1187   C    0.73798   0.23798   0.50000   1.000
    Cu71    Cu   0.62255   0.62255   0.00000   1.000
    Cu72    Cu   0.66299   0.66299   0.00000   1.000
    N36     N    0.69628   0.69628   0.00000   1.000
    C1188   C    0.73798   0.73798   0.00000   1.000
    Cu73    Cu   0.87745   0.12255   0.00000   1.000
    Cu74    Cu   0.83701   0.16299   0.00000   1.000
    N37     N    0.80372   0.19628   0.00000   1.000
    C1189   C    0.76202   0.23798   0.00000   1.000
    Cu75    Cu   0.87745   0.62255   0.50000   1.000
    Cu76    Cu   0.83701   0.66299   0.50000   1.000
    N38     N    0.80372   0.69628   0.50000   1.000
    C1190   C    0.76202   0.73798   0.50000   1.000
    Cu77    Cu   0.37745   0.12255   0.50000   1.000
    Cu78    Cu   0.33701   0.16299   0.50000   1.000
    N39     N    0.30372   0.19628   0.50000   1.000
    C1191   C    0.26202   0.23798   0.50000   1.000
    Cu79    Cu   0.37745   0.62255   0.00000   1.000
    Cu80    Cu   0.33701   0.66299   0.00000   1.000
    N40     N    0.30372   0.69628   0.00000   1.000
    C1192   C    0.26202   0.73798   0.00000   1.000
    Cu81    Cu   0.12255   0.87745   0.00000   1.000
    Cu82    Cu   0.16299   0.83701   0.00000   1.000
    N41     N    0.19628   0.80372   0.00000   1.000
    C1193   C    0.23798   0.76202   0.00000   1.000
    Cu83    Cu   0.12255   0.37745   0.50000   1.000
    Cu84    Cu   0.16299   0.33701   0.50000   1.000
    N42     N    0.19628   0.30372   0.50000   1.000
    C1194   C    0.23798   0.26202   0.50000   1.000
    Cu85    Cu   0.62255   0.87745   0.50000   1.000
    Cu86    Cu   0.66299   0.83701   0.50000   1.000
    N43     N    0.69628   0.80372   0.50000   1.000
    C1195   C    0.73798   0.76202   0.50000   1.000
    Cu87    Cu   0.62255   0.37745   0.00000   1.000
    Cu88    Cu   0.66299   0.33701   0.00000   1.000
    N44     N    0.69628   0.30372   0.00000   1.000
    C1196   C    0.73798   0.26202   0.00000   1.000
    Cu89    Cu   0.87745   0.87745   0.00000   1.000
    Cu90    Cu   0.83701   0.83701   0.00000   1.000
    N45     N    0.80372   0.80372   0.00000   1.000
    C1197   C    0.76202   0.76202   0.00000   1.000
    Cu91    Cu   0.87745   0.37745   0.50000   1.000
    Cu92    Cu   0.83701   0.33701   0.50000   1.000
    N46     N    0.80372   0.30372   0.50000   1.000
    C1198   C    0.76202   0.26202   0.50000   1.000
    Cu93    Cu   0.37745   0.87745   0.50000   1.000
    Cu94    Cu   0.33701   0.83701   0.50000   1.000
    N47     N    0.30372   0.80372   0.50000   1.000
    C1199   C    0.26202   0.76202   0.50000   1.000
    Cu95    Cu   0.37745   0.37745   0.00000   1.000
    Cu96    Cu   0.33701   0.33701   0.00000   1.000
    N48     N    0.30372   0.30372   0.00000   1.000
    C1200   C    0.26202   0.26202   0.00000   1.000
    C1201   C    0.92302   0.07698   0.17070   1.000
    C1202   C    0.89540   0.10460   0.21780   1.000
    N49     N    0.88130   0.11870   0.24140   1.000
    C1203   C    0.91000   0.09000   0.22810   1.000
    N50     N    0.90290   0.09710   0.25740   1.000
    C1204   C    0.92302   0.57698   0.67070   1.000
    C1205   C    0.89540   0.60460   0.71780   1.000
    N51     N    0.88130   0.61870   0.74140   1.000
    C1206   C    0.91000   0.59000   0.72810   1.000
    N52     N    0.90290   0.59710   0.75740   1.000
    C1207   C    0.42302   0.07698   0.67070   1.000
    C1208   C    0.39540   0.10460   0.71780   1.000
    N53     N    0.38130   0.11870   0.74140   1.000
    C1209   C    0.41000   0.09000   0.72810   1.000
    N54     N    0.40290   0.09710   0.75740   1.000
    C1210   C    0.42302   0.57698   0.17070   1.000
    C1211   C    0.39540   0.60460   0.21780   1.000
    N55     N    0.38130   0.61870   0.24140   1.000
    C1212   C    0.41000   0.59000   0.22810   1.000
    N56     N    0.40290   0.59710   0.25740   1.000
    C1213   C    0.07698   0.92302   0.17070   1.000
    C1214   C    0.10460   0.89540   0.21780   1.000
    N57     N    0.11870   0.88130   0.24140   1.000
    C1215   C    0.09000   0.91000   0.22810   1.000
    N58     N    0.09710   0.90290   0.25740   1.000
    C1216   C    0.07698   0.42302   0.67070   1.000
    C1217   C    0.10460   0.39540   0.71780   1.000
    N59     N    0.11870   0.38130   0.74140   1.000
    C1218   C    0.09000   0.41000   0.72810   1.000
    N60     N    0.09710   0.40290   0.75740   1.000
    C1219   C    0.57698   0.92302   0.67070   1.000
    C1220   C    0.60460   0.89540   0.71780   1.000
    N61     N    0.61870   0.88130   0.74140   1.000
    C1221   C    0.59000   0.91000   0.72810   1.000
    N62     N    0.59710   0.90290   0.75740   1.000
    C1222   C    0.57698   0.42302   0.17070   1.000
    C1223   C    0.60460   0.39540   0.21780   1.000
    N63     N    0.61870   0.38130   0.24140   1.000
    C1224   C    0.59000   0.41000   0.22810   1.000
    N64     N    0.59710   0.40290   0.25740   1.000
    C1225   C    0.07698   0.07698   0.82930   1.000
    C1226   C    0.10460   0.10460   0.78220   1.000
    N65     N    0.11870   0.11870   0.75860   1.000
    C1227   C    0.09000   0.09000   0.77190   1.000
    N66     N    0.09710   0.09710   0.74260   1.000
    C1228   C    0.07698   0.57698   0.32930   1.000
    C1229   C    0.10460   0.60460   0.28220   1.000
    N67     N    0.11870   0.61870   0.25860   1.000
    C1230   C    0.09000   0.59000   0.27190   1.000
    N68     N    0.09710   0.59710   0.24260   1.000
    C1231   C    0.57698   0.07698   0.32930   1.000
    C1232   C    0.60460   0.10460   0.28220   1.000
    N69     N    0.61870   0.11870   0.25860   1.000
    C1233   C    0.59000   0.09000   0.27190   1.000
    N70     N    0.59710   0.09710   0.24260   1.000
    C1234   C    0.57698   0.57698   0.82930   1.000
    C1235   C    0.60460   0.60460   0.78220   1.000
    N71     N    0.61870   0.61870   0.75860   1.000
    C1236   C    0.59000   0.59000   0.77190   1.000
    N72     N    0.59710   0.59710   0.74260   1.000
    C1237   C    0.92302   0.92302   0.82930   1.000
    C1238   C    0.89540   0.89540   0.78220   1.000
    N73     N    0.88130   0.88130   0.75860   1.000
    C1239   C    0.91000   0.91000   0.77190   1.000
    N74     N    0.90290   0.90290   0.74260   1.000
    C1240   C    0.92302   0.42302   0.32930   1.000
    C1241   C    0.89540   0.39540   0.28220   1.000
    N75     N    0.88130   0.38130   0.25860   1.000
    C1242   C    0.91000   0.41000   0.27190   1.000
    N76     N    0.90290   0.40290   0.24260   1.000
    C1243   C    0.42302   0.92302   0.32930   1.000
    C1244   C    0.39540   0.89540   0.28220   1.000
    N77     N    0.38130   0.88130   0.25860   1.000
    C1245   C    0.41000   0.91000   0.27190   1.000
    N78     N    0.40290   0.90290   0.24260   1.000
    C1246   C    0.42302   0.42302   0.82930   1.000
    C1247   C    0.39540   0.39540   0.78220   1.000
    N79     N    0.38130   0.38130   0.75860   1.000
    C1248   C    0.41000   0.41000   0.77190   1.000
    N80     N    0.40290   0.40290   0.74260   1.000
    C1249   C    0.17070   0.92302   0.07698   1.000
    C1250   C    0.21780   0.89540   0.10460   1.000
    N81     N    0.24140   0.88130   0.11870   1.000
    C1251   C    0.22810   0.91000   0.09000   1.000
    N82     N    0.25740   0.90290   0.09710   1.000
    C1252   C    0.17070   0.42302   0.57698   1.000
    C1253   C    0.21780   0.39540   0.60460   1.000
    N83     N    0.24140   0.38130   0.61870   1.000
    C1254   C    0.22810   0.41000   0.59000   1.000
    N84     N    0.25740   0.40290   0.59710   1.000
    C1255   C    0.67070   0.92302   0.57698   1.000
    C1256   C    0.71780   0.89540   0.60460   1.000
    N85     N    0.74140   0.88130   0.61870   1.000
    C1257   C    0.72810   0.91000   0.59000   1.000
    N86     N    0.75740   0.90290   0.59710   1.000
    C1258   C    0.67070   0.42302   0.07698   1.000
    C1259   C    0.71780   0.39540   0.10460   1.000
    N87     N    0.74140   0.38130   0.11870   1.000
    C1260   C    0.72810   0.41000   0.09000   1.000
    N88     N    0.75740   0.40290   0.09710   1.000
    C1261   C    0.17070   0.07698   0.92302   1.000
    C1262   C    0.21780   0.10460   0.89540   1.000
    N89     N    0.24140   0.11870   0.88130   1.000
    C1263   C    0.22810   0.09000   0.91000   1.000
    N90     N    0.25740   0.09710   0.90290   1.000
    C1264   C    0.17070   0.57698   0.42302   1.000
    C1265   C    0.21780   0.60460   0.39540   1.000
    N91     N    0.24140   0.61870   0.38130   1.000
    C1266   C    0.22810   0.59000   0.41000   1.000
    N92     N    0.25740   0.59710   0.40290   1.000
    C1267   C    0.67070   0.07698   0.42302   1.000
    C1268   C    0.71780   0.10460   0.39540   1.000
    N93     N    0.74140   0.11870   0.38130   1.000
    C1269   C    0.72810   0.09000   0.41000   1.000
    N94     N    0.75740   0.09710   0.40290   1.000
    C1270   C    0.67070   0.57698   0.92302   1.000
    C1271   C    0.71780   0.60460   0.89540   1.000
    N95     N    0.74140   0.61870   0.88130   1.000
    C1272   C    0.72810   0.59000   0.91000   1.000
    N96     N    0.75740   0.59710   0.90290   1.000
    C1273   C    0.82930   0.07698   0.07698   1.000
    C1274   C    0.78220   0.10460   0.10460   1.000
    N97     N    0.75860   0.11870   0.11870   1.000
    C1275   C    0.77190   0.09000   0.09000   1.000
    N98     N    0.74260   0.09710   0.09710   1.000
    C1276   C    0.82930   0.57698   0.57698   1.000
    C1277   C    0.78220   0.60460   0.60460   1.000
    N99     N    0.75860   0.61870   0.61870   1.000
    C1278   C    0.77190   0.59000   0.59000   1.000
    N100    N    0.74260   0.59710   0.59710   1.000
    C1279   C    0.32930   0.07698   0.57698   1.000
    C1280   C    0.28220   0.10460   0.60460   1.000
    N101    N    0.25860   0.11870   0.61870   1.000
    C1281   C    0.27190   0.09000   0.59000   1.000
    N102    N    0.24260   0.09710   0.59710   1.000
    C1282   C    0.32930   0.57698   0.07698   1.000
    C1283   C    0.28220   0.60460   0.10460   1.000
    N103    N    0.25860   0.61870   0.11870   1.000
    C1284   C    0.27190   0.59000   0.09000   1.000
    N104    N    0.24260   0.59710   0.09710   1.000
    C1285   C    0.82930   0.92302   0.92302   1.000
    C1286   C    0.78220   0.89540   0.89540   1.000
    N105    N    0.75860   0.88130   0.88130   1.000
    C1287   C    0.77190   0.91000   0.91000   1.000
    N106    N    0.74260   0.90290   0.90290   1.000
    C1288   C    0.82930   0.42302   0.42302   1.000
    C1289   C    0.78220   0.39540   0.39540   1.000
    N107    N    0.75860   0.38130   0.38130   1.000
    C1290   C    0.77190   0.41000   0.41000   1.000
    N108    N    0.74260   0.40290   0.40290   1.000
    C1291   C    0.32930   0.92302   0.42302   1.000
    C1292   C    0.28220   0.89540   0.39540   1.000
    N109    N    0.25860   0.88130   0.38130   1.000
    C1293   C    0.27190   0.91000   0.41000   1.000
    N110    N    0.24260   0.90290   0.40290   1.000
    C1294   C    0.32930   0.42302   0.92302   1.000
    C1295   C    0.28220   0.39540   0.89540   1.000
    N111    N    0.25860   0.38130   0.88130   1.000
    C1296   C    0.27190   0.41000   0.91000   1.000
    N112    N    0.24260   0.40290   0.90290   1.000
    C1297   C    0.07698   0.17070   0.92302   1.000
    C1298   C    0.10460   0.21780   0.89540   1.000
    N113    N    0.11870   0.24140   0.88130   1.000
    C1299   C    0.09000   0.22810   0.91000   1.000
    N114    N    0.09710   0.25740   0.90290   1.000
    C1300   C    0.07698   0.67070   0.42302   1.000
    C1301   C    0.10460   0.71780   0.39540   1.000
    N115    N    0.11870   0.74140   0.38130   1.000
    C1302   C    0.09000   0.72810   0.41000   1.000
    N116    N    0.09710   0.75740   0.40290   1.000
    C1303   C    0.57698   0.17070   0.42302   1.000
    C1304   C    0.60460   0.21780   0.39540   1.000
    N117    N    0.61870   0.24140   0.38130   1.000
    C1305   C    0.59000   0.22810   0.41000   1.000
    N118    N    0.59710   0.25740   0.40290   1.000
    C1306   C    0.57698   0.67070   0.92302   1.000
    C1307   C    0.60460   0.71780   0.89540   1.000
    N119    N    0.61870   0.74140   0.88130   1.000
    C1308   C    0.59000   0.72810   0.91000   1.000
    N120    N    0.59710   0.75740   0.90290   1.000
    C1309   C    0.92302   0.17070   0.07698   1.000
    C1310   C    0.89540   0.21780   0.10460   1.000
    N121    N    0.88130   0.24140   0.11870   1.000
    C1311   C    0.91000   0.22810   0.09000   1.000
    N122    N    0.90290   0.25740   0.09710   1.000
    C1312   C    0.92302   0.67070   0.57698   1.000
    C1313   C    0.89540   0.71780   0.60460   1.000
    N123    N    0.88130   0.74140   0.61870   1.000
    C1314   C    0.91000   0.72810   0.59000   1.000
    N124    N    0.90290   0.75740   0.59710   1.000
    C1315   C    0.42302   0.17070   0.57698   1.000
    C1316   C    0.39540   0.21780   0.60460   1.000
    N125    N    0.38130   0.24140   0.61870   1.000
    C1317   C    0.41000   0.22810   0.59000   1.000
    N126    N    0.40290   0.25740   0.59710   1.000
    C1318   C    0.42302   0.67070   0.07698   1.000
    C1319   C    0.39540   0.71780   0.10460   1.000
    N127    N    0.38130   0.74140   0.11870   1.000
    C1320   C    0.41000   0.72810   0.09000   1.000
    N128    N    0.40290   0.75740   0.09710   1.000
    C1321   C    0.07698   0.82930   0.07698   1.000
    C1322   C    0.10460   0.78220   0.10460   1.000
    N129    N    0.11870   0.75860   0.11870   1.000
    C1323   C    0.09000   0.77190   0.09000   1.000
    N130    N    0.09710   0.74260   0.09710   1.000
    C1324   C    0.07698   0.32930   0.57698   1.000
    C1325   C    0.10460   0.28220   0.60460   1.000
    N131    N    0.11870   0.25860   0.61870   1.000
    C1326   C    0.09000   0.27190   0.59000   1.000
    N132    N    0.09710   0.24260   0.59710   1.000
    C1327   C    0.57698   0.82930   0.57698   1.000
    C1328   C    0.60460   0.78220   0.60460   1.000
    N133    N    0.61870   0.75860   0.61870   1.000
    C1329   C    0.59000   0.77190   0.59000   1.000
    N134    N    0.59710   0.74260   0.59710   1.000
    C1330   C    0.57698   0.32930   0.07698   1.000
    C1331   C    0.60460   0.28220   0.10460   1.000
    N135    N    0.61870   0.25860   0.11870   1.000
    C1332   C    0.59000   0.27190   0.09000   1.000
    N136    N    0.59710   0.24260   0.09710   1.000
    C1333   C    0.92302   0.82930   0.92302   1.000
    C1334   C    0.89540   0.78220   0.89540   1.000
    N137    N    0.88130   0.75860   0.88130   1.000
    C1335   C    0.91000   0.77190   0.91000   1.000
    N138    N    0.90290   0.74260   0.90290   1.000
    C1336   C    0.92302   0.32930   0.42302   1.000
    C1337   C    0.89540   0.28220   0.39540   1.000
    N139    N    0.88130   0.25860   0.38130   1.000
    C1338   C    0.91000   0.27190   0.41000   1.000
    N140    N    0.90290   0.24260   0.40290   1.000
    C1339   C    0.42302   0.82930   0.42302   1.000
    C1340   C    0.39540   0.78220   0.39540   1.000
    N141    N    0.38130   0.75860   0.38130   1.000
    C1341   C    0.41000   0.77190   0.41000   1.000
    N142    N    0.40290   0.74260   0.40290   1.000
    C1342   C    0.42302   0.32930   0.92302   1.000
    C1343   C    0.39540   0.28220   0.89540   1.000
    N143    N    0.38130   0.25860   0.88130   1.000
    C1344   C    0.41000   0.27190   0.91000   1.000
    N144    N    0.40290   0.24260   0.90290   1.000
    C1345   C    0.07698   0.92302   0.82930   1.000
    C1346   C    0.10460   0.89540   0.78220   1.000
    N145    N    0.11870   0.88130   0.75860   1.000
    C1347   C    0.09000   0.91000   0.77190   1.000
    N146    N    0.09710   0.90290   0.74260   1.000
    C1348   C    0.07698   0.42302   0.32930   1.000
    C1349   C    0.10460   0.39540   0.28220   1.000
    N147    N    0.11870   0.38130   0.25860   1.000
    C1350   C    0.09000   0.41000   0.27190   1.000
    N148    N    0.09710   0.40290   0.24260   1.000
    C1351   C    0.57698   0.92302   0.32930   1.000
    C1352   C    0.60460   0.89540   0.28220   1.000
    N149    N    0.61870   0.88130   0.25860   1.000
    C1353   C    0.59000   0.91000   0.27190   1.000
    N150    N    0.59710   0.90290   0.24260   1.000
    C1354   C    0.57698   0.42302   0.82930   1.000
    C1355   C    0.60460   0.39540   0.78220   1.000
    N151    N    0.61870   0.38130   0.75860   1.000
    C1356   C    0.59000   0.41000   0.77190   1.000
    N152    N    0.59710   0.40290   0.74260   1.000
    C1357   C    0.92302   0.07698   0.82930   1.000
    C1358   C    0.89540   0.10460   0.78220   1.000
    N153    N    0.88130   0.11870   0.75860   1.000
    C1359   C    0.91000   0.09000   0.77190   1.000
    N154    N    0.90290   0.09710   0.74260   1.000
    C1360   C    0.92302   0.57698   0.32930   1.000
    C1361   C    0.89540   0.60460   0.28220   1.000
    N155    N    0.88130   0.61870   0.25860   1.000
    C1362   C    0.91000   0.59000   0.27190   1.000
    N156    N    0.90290   0.59710   0.24260   1.000
    C1363   C    0.42302   0.07698   0.32930   1.000
    C1364   C    0.39540   0.10460   0.28220   1.000
    N157    N    0.38130   0.11870   0.25860   1.000
    C1365   C    0.41000   0.09000   0.27190   1.000
    N158    N    0.40290   0.09710   0.24260   1.000
    C1366   C    0.42302   0.57698   0.82930   1.000
    C1367   C    0.39540   0.60460   0.78220   1.000
    N159    N    0.38130   0.61870   0.75860   1.000
    C1368   C    0.41000   0.59000   0.77190   1.000
    N160    N    0.40290   0.59710   0.74260   1.000
    C1369   C    0.07698   0.07698   0.17070   1.000
    C1370   C    0.10460   0.10460   0.21780   1.000
    N161    N    0.11870   0.11870   0.24140   1.000
    C1371   C    0.09000   0.09000   0.22810   1.000
    N162    N    0.09710   0.09710   0.25740   1.000
    C1372   C    0.07698   0.57698   0.67070   1.000
    C1373   C    0.10460   0.60460   0.71780   1.000
    N163    N    0.11870   0.61870   0.74140   1.000
    C1374   C    0.09000   0.59000   0.72810   1.000
    N164    N    0.09710   0.59710   0.75740   1.000
    C1375   C    0.57698   0.07698   0.67070   1.000
    C1376   C    0.60460   0.10460   0.71780   1.000
    N165    N    0.61870   0.11870   0.74140   1.000
    C1377   C    0.59000   0.09000   0.72810   1.000
    N166    N    0.59710   0.09710   0.75740   1.000
    C1378   C    0.57698   0.57698   0.17070   1.000
    C1379   C    0.60460   0.60460   0.21780   1.000
    N167    N    0.61870   0.61870   0.24140   1.000
    C1380   C    0.59000   0.59000   0.22810   1.000
    N168    N    0.59710   0.59710   0.25740   1.000
    C1381   C    0.92302   0.92302   0.17070   1.000
    C1382   C    0.89540   0.89540   0.21780   1.000
    N169    N    0.88130   0.88130   0.24140   1.000
    C1383   C    0.91000   0.91000   0.22810   1.000
    N170    N    0.90290   0.90290   0.25740   1.000
    C1384   C    0.92302   0.42302   0.67070   1.000
    C1385   C    0.89540   0.39540   0.71780   1.000
    N171    N    0.88130   0.38130   0.74140   1.000
    C1386   C    0.91000   0.41000   0.72810   1.000
    N172    N    0.90290   0.40290   0.75740   1.000
    C1387   C    0.42302   0.92302   0.67070   1.000
    C1388   C    0.39540   0.89540   0.71780   1.000
    N173    N    0.38130   0.88130   0.74140   1.000
    C1389   C    0.41000   0.91000   0.72810   1.000
    N174    N    0.40290   0.90290   0.75740   1.000
    C1390   C    0.42302   0.42302   0.17070   1.000
    C1391   C    0.39540   0.39540   0.21780   1.000
    N175    N    0.38130   0.38130   0.24140   1.000
    C1392   C    0.41000   0.41000   0.22810   1.000
    N176    N    0.40290   0.40290   0.25740   1.000
    C1393   C    0.92302   0.17070   0.92302   1.000
    C1394   C    0.89540   0.21780   0.89540   1.000
    N177    N    0.88130   0.24140   0.88130   1.000
    C1395   C    0.91000   0.22810   0.91000   1.000
    N178    N    0.90290   0.25740   0.90290   1.000
    C1396   C    0.92302   0.67070   0.42302   1.000
    C1397   C    0.89540   0.71780   0.39540   1.000
    N179    N    0.88130   0.74140   0.38130   1.000
    C1398   C    0.91000   0.72810   0.41000   1.000
    N180    N    0.90290   0.75740   0.40290   1.000
    C1399   C    0.42302   0.17070   0.42302   1.000
    C1400   C    0.39540   0.21780   0.39540   1.000
    N181    N    0.38130   0.24140   0.38130   1.000
    C1401   C    0.41000   0.22810   0.41000   1.000
    N182    N    0.40290   0.25740   0.40290   1.000
    C1402   C    0.42302   0.67070   0.92302   1.000
    C1403   C    0.39540   0.71780   0.89540   1.000
    N183    N    0.38130   0.74140   0.88130   1.000
    C1404   C    0.41000   0.72810   0.91000   1.000
    N184    N    0.40290   0.75740   0.90290   1.000
    C1405   C    0.07698   0.17070   0.07698   1.000
    C1406   C    0.10460   0.21780   0.10460   1.000
    N185    N    0.11870   0.24140   0.11870   1.000
    C1407   C    0.09000   0.22810   0.09000   1.000
    N186    N    0.09710   0.25740   0.09710   1.000
    C1408   C    0.07698   0.67070   0.57698   1.000
    C1409   C    0.10460   0.71780   0.60460   1.000
    N187    N    0.11870   0.74140   0.61870   1.000
    C1410   C    0.09000   0.72810   0.59000   1.000
    N188    N    0.09710   0.75740   0.59710   1.000
    C1411   C    0.57698   0.17070   0.57698   1.000
    C1412   C    0.60460   0.21780   0.60460   1.000
    N189    N    0.61870   0.24140   0.61870   1.000
    C1413   C    0.59000   0.22810   0.59000   1.000
    N190    N    0.59710   0.25740   0.59710   1.000
    C1414   C    0.57698   0.67070   0.07698   1.000
    C1415   C    0.60460   0.71780   0.10460   1.000
    N191    N    0.61870   0.74140   0.11870   1.000
    C1416   C    0.59000   0.72810   0.09000   1.000
    N192    N    0.59710   0.75740   0.09710   1.000
    C1417   C    0.07698   0.82930   0.92302   1.000
    C1418   C    0.10460   0.78220   0.89540   1.000
    N193    N    0.11870   0.75860   0.88130   1.000
    C1419   C    0.09000   0.77190   0.91000   1.000
    N194    N    0.09710   0.74260   0.90290   1.000
    C1420   C    0.07698   0.32930   0.42302   1.000
    C1421   C    0.10460   0.28220   0.39540   1.000
    N195    N    0.11870   0.25860   0.38130   1.000
    C1422   C    0.09000   0.27190   0.41000   1.000
    N196    N    0.09710   0.24260   0.40290   1.000
    C1423   C    0.57698   0.82930   0.42302   1.000
    C1424   C    0.60460   0.78220   0.39540   1.000
    N197    N    0.61870   0.75860   0.38130   1.000
    C1425   C    0.59000   0.77190   0.41000   1.000
    N198    N    0.59710   0.74260   0.40290   1.000
    C1426   C    0.57698   0.32930   0.92302   1.000
    C1427   C    0.60460   0.28220   0.89540   1.000
    N199    N    0.61870   0.25860   0.88130   1.000
    C1428   C    0.59000   0.27190   0.91000   1.000
    N200    N    0.59710   0.24260   0.90290   1.000
    C1429   C    0.92302   0.82930   0.07698   1.000
    C1430   C    0.89540   0.78220   0.10460   1.000
    N201    N    0.88130   0.75860   0.11870   1.000
    C1431   C    0.91000   0.77190   0.09000   1.000
    N202    N    0.90290   0.74260   0.09710   1.000
    C1432   C    0.92302   0.32930   0.57698   1.000
    C1433   C    0.89540   0.28220   0.60460   1.000
    N203    N    0.88130   0.25860   0.61870   1.000
    C1434   C    0.91000   0.27190   0.59000   1.000
    N204    N    0.90290   0.24260   0.59710   1.000
    C1435   C    0.42302   0.82930   0.57698   1.000
    C1436   C    0.39540   0.78220   0.60460   1.000
    N205    N    0.38130   0.75860   0.61870   1.000
    C1437   C    0.41000   0.77190   0.59000   1.000
    N206    N    0.40290   0.74260   0.59710   1.000
    C1438   C    0.42302   0.32930   0.07698   1.000
    C1439   C    0.39540   0.28220   0.10460   1.000
    N207    N    0.38130   0.25860   0.11870   1.000
    C1440   C    0.41000   0.27190   0.09000   1.000
    N208    N    0.40290   0.24260   0.09710   1.000
    C1441   C    0.17070   0.07698   0.07698   1.000
    C1442   C    0.21780   0.10460   0.10460   1.000
    N209    N    0.24140   0.11870   0.11870   1.000
    C1443   C    0.22810   0.09000   0.09000   1.000
    N210    N    0.25740   0.09710   0.09710   1.000
    C1444   C    0.17070   0.57698   0.57698   1.000
    C1445   C    0.21780   0.60460   0.60460   1.000
    N211    N    0.24140   0.61870   0.61870   1.000
    C1446   C    0.22810   0.59000   0.59000   1.000
    N212    N    0.25740   0.59710   0.59710   1.000
    C1447   C    0.67070   0.07698   0.57698   1.000
    C1448   C    0.71780   0.10460   0.60460   1.000
    N213    N    0.74140   0.11870   0.61870   1.000
    C1449   C    0.72810   0.09000   0.59000   1.000
    N214    N    0.75740   0.09710   0.59710   1.000
    C1450   C    0.67070   0.57698   0.07698   1.000
    C1451   C    0.71780   0.60460   0.10460   1.000
    N215    N    0.74140   0.61870   0.11870   1.000
    C1452   C    0.72810   0.59000   0.09000   1.000
    N216    N    0.75740   0.59710   0.09710   1.000
    C1453   C    0.17070   0.92302   0.92302   1.000
    C1454   C    0.21780   0.89540   0.89540   1.000
    N217    N    0.24140   0.88130   0.88130   1.000
    C1455   C    0.22810   0.91000   0.91000   1.000
    N218    N    0.25740   0.90290   0.90290   1.000
    C1456   C    0.17070   0.42302   0.42302   1.000
    C1457   C    0.21780   0.39540   0.39540   1.000
    N219    N    0.24140   0.38130   0.38130   1.000
    C1458   C    0.22810   0.41000   0.41000   1.000
    N220    N    0.25740   0.40290   0.40290   1.000
    C1459   C    0.67070   0.92302   0.42302   1.000
    C1460   C    0.71780   0.89540   0.39540   1.000
    N221    N    0.74140   0.88130   0.38130   1.000
    C1461   C    0.72810   0.91000   0.41000   1.000
    N222    N    0.75740   0.90290   0.40290   1.000
    C1462   C    0.67070   0.42302   0.92302   1.000
    C1463   C    0.71780   0.39540   0.89540   1.000
    N223    N    0.74140   0.38130   0.88130   1.000
    C1464   C    0.72810   0.41000   0.91000   1.000
    N224    N    0.75740   0.40290   0.90290   1.000
    C1465   C    0.82930   0.07698   0.92302   1.000
    C1466   C    0.78220   0.10460   0.89540   1.000
    N225    N    0.75860   0.11870   0.88130   1.000
    C1467   C    0.77190   0.09000   0.91000   1.000
    N226    N    0.74260   0.09710   0.90290   1.000
    C1468   C    0.82930   0.57698   0.42302   1.000
    C1469   C    0.78220   0.60460   0.39540   1.000
    N227    N    0.75860   0.61870   0.38130   1.000
    C1470   C    0.77190   0.59000   0.41000   1.000
    N228    N    0.74260   0.59710   0.40290   1.000
    C1471   C    0.32930   0.07698   0.42302   1.000
    C1472   C    0.28220   0.10460   0.39540   1.000
    N229    N    0.25860   0.11870   0.38130   1.000
    C1473   C    0.27190   0.09000   0.41000   1.000
    N230    N    0.24260   0.09710   0.40290   1.000
    C1474   C    0.32930   0.57698   0.92302   1.000
    C1475   C    0.28220   0.60460   0.89540   1.000
    N231    N    0.25860   0.61870   0.88130   1.000
    C1476   C    0.27190   0.59000   0.91000   1.000
    N232    N    0.24260   0.59710   0.90290   1.000
    C1477   C    0.82930   0.92302   0.07698   1.000
    C1478   C    0.78220   0.89540   0.10460   1.000
    N233    N    0.75860   0.88130   0.11870   1.000
    C1479   C    0.77190   0.91000   0.09000   1.000
    N234    N    0.74260   0.90290   0.09710   1.000
    C1480   C    0.82930   0.42302   0.57698   1.000
    C1481   C    0.78220   0.39540   0.60460   1.000
    N235    N    0.75860   0.38130   0.61870   1.000
    C1482   C    0.77190   0.41000   0.59000   1.000
    N236    N    0.74260   0.40290   0.59710   1.000
    C1483   C    0.32930   0.92302   0.57698   1.000
    C1484   C    0.28220   0.89540   0.60460   1.000
    N237    N    0.25860   0.88130   0.61870   1.000
    C1485   C    0.27190   0.91000   0.59000   1.000
    N238    N    0.24260   0.90290   0.59710   1.000
    C1486   C    0.32930   0.42302   0.07698   1.000
    C1487   C    0.28220   0.39540   0.10460   1.000
    N239    N    0.25860   0.38130   0.11870   1.000
    C1488   C    0.27190   0.41000   0.09000   1.000
    N240    N    0.24260   0.40290   0.09710   1.000
    C1489   C    0.02590   0.22790   0.22790   1.000
    C1490   C    0.02590   0.72790   0.72790   1.000
    C1491   C    0.52590   0.22790   0.72790   1.000
    C1492   C    0.52590   0.72790   0.22790   1.000
    C1493   C    0.97410   0.77210   0.22790   1.000
    C1494   C    0.97410   0.27210   0.72790   1.000
    C1495   C    0.47410   0.77210   0.72790   1.000
    C1496   C    0.47410   0.27210   0.22790   1.000
    C1497   C    0.97410   0.22790   0.77210   1.000
    C1498   C    0.97410   0.72790   0.27210   1.000
    C1499   C    0.47410   0.22790   0.27210   1.000
    C1500   C    0.47410   0.72790   0.77210   1.000
    C1501   C    0.02590   0.77210   0.77210   1.000
    C1502   C    0.02590   0.27210   0.27210   1.000
    C1503   C    0.52590   0.77210   0.27210   1.000
    C1504   C    0.52590   0.27210   0.77210   1.000
    C1505   C    0.22790   0.02590   0.22790   1.000
    C1506   C    0.22790   0.52590   0.72790   1.000
    C1507   C    0.72790   0.02590   0.72790   1.000
    C1508   C    0.72790   0.52590   0.22790   1.000
    C1509   C    0.22790   0.97410   0.77210   1.000
    C1510   C    0.22790   0.47410   0.27210   1.000
    C1511   C    0.72790   0.97410   0.27210   1.000
    C1512   C    0.72790   0.47410   0.77210   1.000
    C1513   C    0.77210   0.97410   0.22790   1.000
    C1514   C    0.77210   0.47410   0.72790   1.000
    C1515   C    0.27210   0.97410   0.72790   1.000
    C1516   C    0.27210   0.47410   0.22790   1.000
    C1517   C    0.77210   0.02590   0.77210   1.000
    C1518   C    0.77210   0.52590   0.27210   1.000
    C1519   C    0.27210   0.02590   0.27210   1.000
    C1520   C    0.27210   0.52590   0.77210   1.000
    C1521   C    0.22790   0.22790   0.02590   1.000
    C1522   C    0.22790   0.72790   0.52590   1.000
    C1523   C    0.72790   0.22790   0.52590   1.000
    C1524   C    0.72790   0.72790   0.02590   1.000
    C1525   C    0.77210   0.22790   0.97410   1.000
    C1526   C    0.77210   0.72790   0.47410   1.000
    C1527   C    0.27210   0.22790   0.47410   1.000
    C1528   C    0.27210   0.72790   0.97410   1.000
    C1529   C    0.22790   0.77210   0.97410   1.000
    C1530   C    0.22790   0.27210   0.47410   1.000
    C1531   C    0.72790   0.77210   0.47410   1.000
    C1532   C    0.72790   0.27210   0.97410   1.000
    C1533   C    0.77210   0.77210   0.02590   1.000
    C1534   C    0.77210   0.27210   0.52590   1.000
    C1535   C    0.27210   0.77210   0.52590   1.000
    C1536   C    0.27210   0.27210   0.02590   1.000
    C1537   C    0.22790   0.02590   0.77210   1.000
    C1538   C    0.22790   0.52590   0.27210   1.000
    C1539   C    0.72790   0.02590   0.27210   1.000
    C1540   C    0.72790   0.52590   0.77210   1.000
    C1541   C    0.77210   0.97410   0.77210   1.000
    C1542   C    0.77210   0.47410   0.27210   1.000
    C1543   C    0.27210   0.97410   0.27210   1.000
    C1544   C    0.27210   0.47410   0.77210   1.000
    C1545   C    0.22790   0.97410   0.22790   1.000
    C1546   C    0.22790   0.47410   0.72790   1.000
    C1547   C    0.72790   0.97410   0.72790   1.000
    C1548   C    0.72790   0.47410   0.22790   1.000
    C1549   C    0.77210   0.02590   0.22790   1.000
    C1550   C    0.77210   0.52590   0.72790   1.000
    C1551   C    0.27210   0.02590   0.72790   1.000
    C1552   C    0.27210   0.52590   0.22790   1.000
    C1553   C    0.02590   0.22790   0.77210   1.000
    C1554   C    0.02590   0.72790   0.27210   1.000
    C1555   C    0.52590   0.22790   0.27210   1.000
    C1556   C    0.52590   0.72790   0.77210   1.000
    C1557   C    0.97410   0.22790   0.22790   1.000
    C1558   C    0.97410   0.72790   0.72790   1.000
    C1559   C    0.47410   0.22790   0.72790   1.000
    C1560   C    0.47410   0.72790   0.22790   1.000
    C1561   C    0.97410   0.77210   0.77210   1.000
    C1562   C    0.97410   0.27210   0.27210   1.000
    C1563   C    0.47410   0.77210   0.27210   1.000
    C1564   C    0.47410   0.27210   0.77210   1.000
    C1565   C    0.02590   0.77210   0.22790   1.000
    C1566   C    0.02590   0.27210   0.72790   1.000
    C1567   C    0.52590   0.77210   0.72790   1.000
    C1568   C    0.52590   0.27210   0.22790   1.000
    C1569   C    0.22790   0.22790   0.97410   1.000
    C1570   C    0.22790   0.72790   0.47410   1.000
    C1571   C    0.72790   0.22790   0.47410   1.000
    C1572   C    0.72790   0.72790   0.97410   1.000
    C1573   C    0.22790   0.77210   0.02590   1.000
    C1574   C    0.22790   0.27210   0.52590   1.000
    C1575   C    0.72790   0.77210   0.52590   1.000
    C1576   C    0.72790   0.27210   0.02590   1.000
    C1577   C    0.77210   0.22790   0.02590   1.000
    C1578   C    0.77210   0.72790   0.52590   1.000
    C1579   C    0.27210   0.22790   0.52590   1.000
    C1580   C    0.27210   0.72790   0.02590   1.000
    C1581   C    0.77210   0.77210   0.97410   1.000
    C1582   C    0.77210   0.27210   0.47410   1.000
    C1583   C    0.27210   0.77210   0.47410   1.000
    C1584   C    0.27210   0.27210   0.97410   1.000
