data_functionalizedCrystal
_audit_creation_method	'EQeq! by Chris Wilmer'
_symmetry_space_group_name_H-M	'P1'
_symmetry_Int_Tables_number	1
_symmetry_cell_setting	triclinic
loop_
_symmetry_equiv_pos_as_xyz
  x,y,z
_cell_length_a	16.6906
_cell_length_b	16.6906
_cell_length_c	17.3614
_cell_angle_alpha	61.2697
_cell_angle_beta	61.2697
_cell_angle_gamma	89.9995
loop_
_atom_site_label
_atom_site_type_symbol
_atom_site_fract_x
_atom_site_fract_y
_atom_site_fract_z
_atom_site_charge
Mof_Mn	Mn	-0	0	-0	0.758
Mof_Co	Co	0.55141	0.55141	0.89718	1.148
Mof_Co	Co	0.44859	0.44859	0.10282	1.138
Mof_H 	H 	0.2144	0.0729	0.8016	0.018
Mof_H 	H 	0.7899	0.8366	0.5372	0.028
Mof_H 	H 	0.2101	0.1634	0.4628	0.024
Mof_H 	H 	0.7852	0.6924	0.38	0.023
Mof_H 	H 	0.7472	0.6919	0.721	0.023
Mof_H 	H 	0.1255	0.984	0.8016	0.028
Mof_H 	H 	0.6037	0.2401	0.1562	0.005
Mof_H 	H 	0.8745	0.016	0.1984	0.007
Mof_H 	H 	0.2148	0.0724	0.62	0.021
Mof_H 	H 	0.1652	0.3076	0.62	0.023
Mof_H 	H 	0.3271	0.1634	0.4628	0.025
Mof_H 	H 	0.8588	0.2974	0.8438	0.086
Mof_H 	H 	0.9271	0.7856	0.1984	0.016
Mof_H 	H 	0.5871	0.7472	0.721	0.022
Mof_H 	H 	0.0729	0.984	0.8016	0.026
Mof_H 	H 	0.7472	0.5871	0.721	0.022
Mof_H 	H 	0.1652	0.0724	0.62	0.02
Mof_H 	H 	0.3963	0.3963	0.8438	0.001
Mof_H 	H 	0.1634	0.2101	0.4628	0.024
Mof_H 	H 	0.7026	0.7026	0.1562	0.087
Mof_H 	H 	0.0729	0.2144	0.8016	0.018
Mof_H 	H 	0.2974	0.2974	0.8438	0.084
Mof_H 	H 	0.9276	0.7852	0.38	0.026
Mof_H 	H 	0.6262	0.7899	0.5372	0.027
Mof_H 	H 	0.2101	0.3738	0.4628	0.026
Mof_H 	H 	0.8366	0.7899	0.5372	0.028
Mof_H 	H 	0.2148	0.3076	0.62	0.024
Mof_H 	H 	0.3963	0.7599	0.8438	0.002
Mof_H 	H 	0.8588	0.8588	0.8438	0.088
Mof_H 	H 	0.7026	0.1412	0.1562	0.085
Mof_H 	H 	0.7856	0.8745	0.1984	0.014
Mof_H 	H 	0.2401	0.2401	0.1562	0.005
Mof_H 	H 	0.6924	0.7852	0.38	0.023
Mof_H 	H 	0.1255	0.2144	0.8016	0.019
Mof_H 	H 	0.6919	0.7472	0.721	0.023
Mof_H 	H 	0.074	0.2988	-0	0.06
Mof_H 	H 	0.7899	0.6262	0.5372	0.027
Mof_H 	H 	0.3076	0.2148	0.62	0.024
Mof_H 	H 	0.2528	0.3081	0.279	0.018
Mof_H 	H 	0.8745	0.7856	0.1984	0.014
Mof_H 	H 	0.5318	0.6919	0.721	0.022
Mof_H 	H 	0.7012	0.926	-0	0.049
Mof_H 	H 	0.7012	0.074	-0	0.059
Mof_H 	H 	0.0724	0.2148	0.62	0.021
Mof_H 	H 	0.4682	0.4129	0.279	0.02
Mof_H 	H 	0.2974	0.8588	0.8438	0.086
Mof_H 	H 	0.074	0.7012	-0	0.059
Mof_H 	H 	0.7852	0.9276	0.38	0.026
Mof_H 	H 	0.4682	0.3081	0.279	0.019
Mof_H 	H 	0.984	0.1255	0.8016	0.028
Mof_H 	H 	0.1634	0.3271	0.4628	0.025
Mof_H 	H 	0.9271	0.016	0.1984	0.008
Mof_H 	H 	0.7599	0.7599	0.8438	0.003
Mof_H 	H 	0.6919	0.5318	0.721	0.022
Mof_H 	H 	0.6262	0.6729	0.5372	0.026
Mof_H 	H 	0.5318	0.5871	0.721	0.022
Mof_H 	H 	0.2988	0.074	-0	0.06
Mof_H 	H 	0.8366	0.6729	0.5372	0.027
Mof_H 	H 	0.7856	0.9271	0.1984	0.016
Mof_H 	H 	0.016	0.9271	0.1984	0.008
Mof_H 	H 	0.2401	0.6037	0.1562	0.005
Mof_H 	H 	0.5871	0.5318	0.721	0.022
Mof_H 	H 	0.6729	0.8366	0.5372	0.027
Mof_H 	H 	0.7599	0.3963	0.8438	0.002
Mof_H 	H 	0.9276	0.8348	0.38	0.027
Mof_H 	H 	0.0724	0.1652	0.62	0.02
Mof_H 	H 	0.2988	0.926	-0	0.048
Mof_H 	H 	0.3076	0.1652	0.62	0.023
Mof_H 	H 	0.3081	0.2528	0.279	0.018
Mof_H 	H 	0.3081	0.4682	0.279	0.019
Mof_H 	H 	0.6729	0.6262	0.5372	0.026
Mof_H 	H 	0.926	0.7012	-0	0.049
Mof_H 	H 	0.2528	0.4129	0.279	0.019
Mof_H 	H 	0.6037	0.6037	0.1562	0.006
Mof_H 	H 	0.016	0.8745	0.1984	0.007
Mof_H 	H 	0.1412	0.1412	0.1562	0.082
Mof_H 	H 	0.1412	0.7026	0.1562	0.085
Mof_H 	H 	0.3738	0.2101	0.4628	0.026
Mof_H 	H 	0.8348	0.9276	0.38	0.027
Mof_H 	H 	0.4129	0.2528	0.279	0.019
Mof_H 	H 	0.8348	0.6924	0.38	0.025
Mof_H 	H 	0.926	0.2988	-0	0.048
Mof_H 	H 	0.2144	0.1255	0.8016	0.019
Mof_H 	H 	0.3738	0.3271	0.4628	0.026
Mof_H 	H 	0.3271	0.3738	0.4628	0.026
Mof_H 	H 	0.6924	0.8348	0.38	0.025
Mof_H 	H 	0.984	0.0729	0.8016	0.026
Mof_H 	H 	0.4129	0.4682	0.279	0.02
Mof_C 	C 	0.813	0.7592	0.3446	-0.03
Mof_C 	C 	0.5952	0.6268	0.683	0.002
Mof_C 	C 	0.253	0.2245	0.427	-0.029
Mof_C 	C 	0.8146	0.8669	0.236	0.005
Mof_C 	C 	0.1038	0.1576	0.6554	-0.026
Mof_C 	C 	0.1029	0.0506	0.764	-0.005
Mof_C 	C 	0.6515	0.747	0.573	-0.028
Mof_C 	C 	0.2094	0.2094	-0	0.098
Mof_C 	C 	0.3098	0.4048	0.317	0.002
Mof_C 	C 	0.187	0.1038	0.6554	-0.027
Mof_C 	C 	0.6268	0.5952	0.683	0.002
Mof_C 	C 	0.1854	0.1331	0.764	0.011
Mof_C 	C 	0.6902	0.7218	0.683	0.002
Mof_C 	C 	0.17	0.0651	-0	0.104
Mof_C 	C 	0.813	0.8962	0.3446	-0.033
Mof_C 	C 	0.2782	0.3098	0.317	0.003
Mof_C 	C 	0.2245	0.32	0.427	-0.029
Mof_C 	C 	0.3913	0.6087	-0	0.371
Mof_C 	C 	0.7906	0.7906	-0	0.102
Mof_C 	C 	0.7475	0.7475	0.9086	0.14
Mof_C 	C 	0.9494	0.8971	0.236	0.019
Mof_C 	C 	0.1331	0.0506	0.764	0.001
Mof_C 	C 	0.32	0.2245	0.427	-0.029
Mof_C 	C 	0.6902	0.5952	0.683	0.002
Mof_C 	C 	0.743	0.743	0.514	0.022
Mof_C 	C 	0.2525	0.6561	0.0914	0.103
Mof_C 	C 	0.1936	0.7152	0.0912	-0.176
Mof_C 	C 	0.68	0.7755	0.573	-0.028
Mof_C 	C 	0.8424	0.7592	0.3446	-0.031
Mof_C 	C 	0.7475	0.3439	0.9086	0.14
Mof_C 	C 	0.8064	0.8064	0.9088	-0.14
Mof_C 	C 	0.146	0.146	-0	-0.142
Mof_C 	C 	0.0401	0.7469	-0	-0.111
Mof_C 	C 	0.6561	0.2525	0.0914	0.103
Mof_C 	C 	0.7755	0.747	0.573	-0.028
Mof_C 	C 	0.7755	0.68	0.573	-0.028
Mof_C 	C 	0.257	0.257	0.486	0.027
Mof_C 	C 	0.0401	0.2531	-0	-0.114
Mof_C 	C 	0.8971	0.9494	0.236	0.019
Mof_C 	C 	0.2531	0.9599	-0	-0.061
Mof_C 	C 	0.9599	0.7469	-0	-0.064
Mof_C 	C 	0.8669	0.8146	0.236	0.005
Mof_C 	C 	0.8971	0.8146	0.236	0.01
Mof_C 	C 	0.1576	0.1038	0.6554	-0.026
Mof_C 	C 	0.253	0.3485	0.427	-0.029
Mof_C 	C 	0.8064	0.2848	0.9088	-0.139
Mof_C 	C 	0.854	0.146	-0	-0.138
Mof_C 	C 	0.3439	0.3439	0.9086	0.14
Mof_C 	C 	0.5952	0.6902	0.683	0.002
Mof_C 	C 	0.6087	0.3913	-0	0.371
Mof_C 	C 	0.187	0.2408	0.6554	-0.03
Mof_C 	C 	0.2848	0.8064	0.9088	-0.139
Mof_C 	C 	0.4048	0.3732	0.317	0.003
Mof_C 	C 	0.8669	0.9494	0.236	0.012
Mof_C 	C 	0.8424	0.8962	0.3446	-0.033
Mof_C 	C 	0.2094	0.7906	-0	0.1
Mof_C 	C 	0.3271	0.6729	-0	-0.205
Mof_C 	C 	0.8962	0.813	0.3446	-0.033
Mof_C 	C 	0.3098	0.2782	0.317	0.003
Mof_C 	C 	0.7906	0.2094	-0	0.1
Mof_C 	C 	0.6561	0.6561	0.0914	0.104
Mof_C 	C 	0.1331	0.1854	0.764	0.011
Mof_C 	C 	0.2018	0.2018	0.5964	0.025
Mof_C 	C 	0.2525	0.2525	0.0914	0.102
Mof_C 	C 	0.146	0.854	-0	-0.138
Mof_C 	C 	0.7982	0.7982	0.4036	0.036
Mof_C 	C 	0.8146	0.8971	0.236	0.01
Mof_C 	C 	0.7592	0.8424	0.3446	-0.031
Mof_C 	C 	0.2531	0.0401	-0	-0.114
Mof_C 	C 	0.1854	0.1029	0.764	0.004
Mof_C 	C 	0.1576	0.2408	0.6554	-0.03
Mof_C 	C 	0.0651	0.17	-0	0.104
Mof_C 	C 	0.3732	0.2782	0.317	0.003
Mof_C 	C 	0.2408	0.1576	0.6554	-0.03
Mof_C 	C 	0.83	0.9349	-0	0.104
Mof_C 	C 	0.7152	0.7152	0.0912	-0.176
Mof_C 	C 	0.3439	0.7475	0.9086	0.14
Mof_C 	C 	0.2245	0.253	0.427	-0.029
Mof_C 	C 	0.1029	0.1854	0.764	0.004
Mof_C 	C 	0.9349	0.17	-0	0.105
Mof_C 	C 	0.6729	0.3271	-0	-0.205
Mof_C 	C 	0.7152	0.1936	0.0912	-0.176
Mof_C 	C 	0.6268	0.7218	0.683	0.002
Mof_C 	C 	0.6515	0.68	0.573	-0.028
Mof_C 	C 	0.9599	0.2531	-0	-0.061
Mof_C 	C 	0.83	0.0651	-0	0.105
Mof_C 	C 	0.68	0.6515	0.573	-0.028
Mof_C 	C 	0.3485	0.253	0.427	-0.029
Mof_C 	C 	0.7592	0.813	0.3446	-0.03
Mof_C 	C 	0.7469	0.9599	-0	-0.064
Mof_C 	C 	0.2782	0.3732	0.317	0.003
Mof_C 	C 	0.854	0.854	-0	-0.135
Mof_C 	C 	0.3485	0.32	0.427	-0.029
Mof_C 	C 	0.6729	0.6729	-0	-0.203
Mof_C 	C 	0.0506	0.1331	0.764	0.001
Mof_C 	C 	0.747	0.6515	0.573	-0.028
Mof_C 	C 	0.6087	0.6087	-0	0.372
Mof_C 	C 	0.2408	0.187	0.6554	-0.03
Mof_C 	C 	0.4048	0.3098	0.317	0.002
Mof_C 	C 	0.9349	0.83	-0	0.104
Mof_C 	C 	0.3913	0.3913	-0	0.37
Mof_C 	C 	0.9494	0.8669	0.236	0.012
Mof_C 	C 	0.0506	0.1029	0.764	-0.005
Mof_C 	C 	0.1936	0.1936	0.0912	-0.176
Mof_C 	C 	0.0651	0.83	-0	0.105
Mof_C 	C 	0.3732	0.4048	0.317	0.003
Mof_C 	C 	0.2848	0.2848	0.9088	-0.138
Mof_C 	C 	0.32	0.3485	0.427	-0.029
Mof_C 	C 	0.8962	0.8424	0.3446	-0.033
Mof_C 	C 	0.1038	0.187	0.6554	-0.027
Mof_C 	C 	0.17	0.9349	-0	0.105
Mof_C 	C 	0.7218	0.6268	0.683	0.002
Mof_C 	C 	0.7469	0.0401	-0	-0.111
Mof_C 	C 	0.7218	0.6902	0.683	0.002
Mof_C 	C 	0.747	0.7755	0.573	-0.028
Mof_C 	C 	0.3271	0.3271	-0	-0.206
Mof_N 	N 	1.22264e-22	0.1205	-0	-0.237
Mof_N 	N 	0.9082	0.9082	0.1836	-0.171
Mof_N 	N 	0.6333	0.6333	0.7334	-0.212
Mof_N 	N 	0.8795	0	-0	-0.232
Mof_N 	N 	0.1205	0	-0	-0.237
Mof_N 	N 	0.0918	0.0918	0.8164	-0.16
Mof_N 	N 	-0	0.8795	-0	-0.232
Mof_N 	N 	0.3667	0.3667	0.2666	-0.212
Mof_O 	O 	0.37136	0.37136	0.0871	-0.463
Mof_O 	O 	0.45846	0.62864	0.9129	-0.432
Mof_O 	O 	0.54154	0.54154	0.0871	-0.462
Mof_O 	O 	0.62864	0.45846	0.9129	-0.432
Mof_O 	O 	0.45846	0.45846	0.9129	-0.432
Mof_O 	O 	0.54154	0.37136	0.0871	-0.463
Mof_O 	O 	0.37136	0.54154	0.0871	-0.463
Mof_O 	O 	0.62864	0.62864	0.9129	-0.432
_end
