# CIF file generated by openbabel 2.4.1, see http://openbabel.sf.net
data_I
_chemical_name_common 'image0'
_cell_length_a 24.9961
_cell_length_b 24.9961
_cell_length_c 7.4414
_cell_angle_alpha 90
_cell_angle_beta 90
_cell_angle_gamma 90
_space_group_name_H-M_alt 'P 1'
_space_group_name_Hall 'P 1'
loop_
    _symmetry_equiv_pos_as_xyz
    x,y,z
loop_
    _atom_site_label
    _atom_site_type_symbol
    _atom_site_fract_x
    _atom_site_fract_y
    _atom_site_fract_z
    _atom_site_occupancy
    C1      C    0.47230   0.38740   0.37750   1.000
    H1      H    0.45300   0.40660   0.28850   1.000
    C2      C    0.47050   0.33290   0.37390   1.000
    H2      H    0.44940   0.31490   0.28670   1.000
    C3      C    0.45600   0.11320   0.44040   1.000
    H3      H    0.42550   0.13210   0.39830   1.000
    C4      C    0.45560   0.05830   0.44120   1.000
    H4      H    0.42470   0.03970   0.40110   1.000
    C5      C    0.52770   0.61260   0.37750   1.000
    H5      H    0.54700   0.59340   0.28850   1.000
    C6      C    0.52950   0.66710   0.37390   1.000
    H6      H    0.55060   0.68510   0.28670   1.000
    C7      C    0.54400   0.88680   0.44040   1.000
    H7      H    0.57450   0.86790   0.39830   1.000
    C8      C    0.54440   0.94170   0.44120   1.000
    H8      H    0.57530   0.96030   0.40110   1.000
    C9      C    0.61260   0.47230   0.37750   1.000
    H9      H    0.59340   0.45300   0.28850   1.000
    C10     C    0.66710   0.47050   0.37390   1.000
    H10     H    0.68510   0.44940   0.28670   1.000
    C11     C    0.88680   0.45600   0.44040   1.000
    H11     H    0.86790   0.42550   0.39830   1.000
    C12     C    0.94170   0.45560   0.44120   1.000
    H12     H    0.96030   0.42470   0.40110   1.000
    C13     C    0.38740   0.52770   0.37750   1.000
    H13     H    0.40660   0.54700   0.28850   1.000
    C14     C    0.33290   0.52950   0.37390   1.000
    H14     H    0.31490   0.55060   0.28670   1.000
    C15     C    0.11320   0.54400   0.44040   1.000
    H15     H    0.13210   0.57450   0.39830   1.000
    C16     C    0.05830   0.54440   0.44120   1.000
    H16     H    0.03970   0.57530   0.40110   1.000
    C17     C    0.52770   0.38740   0.62250   1.000
    H17     H    0.54700   0.40660   0.71150   1.000
    C18     C    0.52950   0.33290   0.62610   1.000
    H18     H    0.55060   0.31490   0.71330   1.000
    C19     C    0.54400   0.11320   0.55960   1.000
    H19     H    0.57450   0.13210   0.60170   1.000
    C20     C    0.54440   0.05830   0.55880   1.000
    H20     H    0.57530   0.03970   0.59890   1.000
    C21     C    0.47230   0.61260   0.62250   1.000
    H21     H    0.45300   0.59340   0.71150   1.000
    C22     C    0.47050   0.66710   0.62610   1.000
    H22     H    0.44940   0.68510   0.71330   1.000
    C23     C    0.45600   0.88680   0.55960   1.000
    H23     H    0.42550   0.86790   0.60170   1.000
    C24     C    0.45560   0.94170   0.55880   1.000
    H24     H    0.42470   0.96030   0.59890   1.000
    C25     C    0.38740   0.47230   0.62250   1.000
    H25     H    0.40660   0.45300   0.71150   1.000
    C26     C    0.33290   0.47050   0.62610   1.000
    H26     H    0.31490   0.44940   0.71330   1.000
    C27     C    0.11320   0.45600   0.55960   1.000
    H27     H    0.13210   0.42550   0.60170   1.000
    C28     C    0.05830   0.45560   0.55880   1.000
    H28     H    0.03970   0.42470   0.59890   1.000
    C29     C    0.61260   0.52770   0.62250   1.000
    H29     H    0.59340   0.54700   0.71150   1.000
    C30     C    0.66710   0.52950   0.62610   1.000
    H30     H    0.68510   0.55060   0.71330   1.000
    C31     C    0.88680   0.54400   0.55960   1.000
    H31     H    0.86790   0.57450   0.60170   1.000
    C32     C    0.94170   0.54440   0.55880   1.000
    H32     H    0.96030   0.57530   0.59890   1.000
    C33     C    0.52770   0.61260   0.62250   1.000
    H33     H    0.54700   0.59340   0.71150   1.000
    C34     C    0.52950   0.66710   0.62610   1.000
    H34     H    0.55060   0.68510   0.71330   1.000
    C35     C    0.54400   0.88680   0.55960   1.000
    H35     H    0.57450   0.86790   0.60170   1.000
    C36     C    0.54440   0.94170   0.55880   1.000
    H36     H    0.57530   0.96030   0.59890   1.000
    C37     C    0.47230   0.38740   0.62250   1.000
    H37     H    0.45300   0.40660   0.71150   1.000
    C38     C    0.47050   0.33290   0.62610   1.000
    H38     H    0.44940   0.31490   0.71330   1.000
    C39     C    0.45600   0.11320   0.55960   1.000
    H39     H    0.42550   0.13210   0.60170   1.000
    C40     C    0.45560   0.05830   0.55880   1.000
    H40     H    0.42470   0.03970   0.59890   1.000
    C41     C    0.38740   0.52770   0.62250   1.000
    H41     H    0.40660   0.54700   0.71150   1.000
    C42     C    0.33290   0.52950   0.62610   1.000
    H42     H    0.31490   0.55060   0.71330   1.000
    C43     C    0.11320   0.54400   0.55960   1.000
    H43     H    0.13210   0.57450   0.60170   1.000
    C44     C    0.05830   0.54440   0.55880   1.000
    H44     H    0.03970   0.57530   0.59890   1.000
    C45     C    0.61260   0.47230   0.62250   1.000
    H45     H    0.59340   0.45300   0.71150   1.000
    C46     C    0.66710   0.47050   0.62610   1.000
    H46     H    0.68510   0.44940   0.71330   1.000
    C47     C    0.88680   0.45600   0.55960   1.000
    H47     H    0.86790   0.42550   0.60170   1.000
    C48     C    0.94170   0.45560   0.55880   1.000
    H48     H    0.96030   0.42470   0.59890   1.000
    C49     C    0.47230   0.61260   0.37750   1.000
    H49     H    0.45300   0.59340   0.28850   1.000
    C50     C    0.47050   0.66710   0.37390   1.000
    H50     H    0.44940   0.68510   0.28670   1.000
    C51     C    0.45600   0.88680   0.44040   1.000
    H51     H    0.42550   0.86790   0.39830   1.000
    C52     C    0.45560   0.94170   0.44120   1.000
    H52     H    0.42470   0.96030   0.40110   1.000
    C53     C    0.52770   0.38740   0.37750   1.000
    H53     H    0.54700   0.40660   0.28850   1.000
    C54     C    0.52950   0.33290   0.37390   1.000
    H54     H    0.55060   0.31490   0.28670   1.000
    C55     C    0.54400   0.11320   0.44040   1.000
    H55     H    0.57450   0.13210   0.39830   1.000
    C56     C    0.54440   0.05830   0.44120   1.000
    H56     H    0.57530   0.03970   0.40110   1.000
    C57     C    0.61260   0.52770   0.37750   1.000
    H57     H    0.59340   0.54700   0.28850   1.000
    C58     C    0.66710   0.52950   0.37390   1.000
    H58     H    0.68510   0.55060   0.28670   1.000
    C59     C    0.88680   0.54400   0.44040   1.000
    H59     H    0.86790   0.57450   0.39830   1.000
    C60     C    0.94170   0.54440   0.44120   1.000
    H60     H    0.96030   0.57530   0.40110   1.000
    C61     C    0.38740   0.47230   0.37750   1.000
    H61     H    0.40660   0.45300   0.28850   1.000
    C62     C    0.33290   0.47050   0.37390   1.000
    H62     H    0.31490   0.44940   0.28670   1.000
    C63     C    0.11320   0.45600   0.44040   1.000
    H63     H    0.13210   0.42550   0.39830   1.000
    C64     C    0.05830   0.45560   0.44120   1.000
    H64     H    0.03970   0.42470   0.40110   1.000
    Zn1     Zn   0.50000   0.50000   0.50000   1.000
    Si1     Si   0.50000   0.50000   0.00000   1.000
    F1      F    0.50000   0.50000   0.22770   1.000
    F2      F    0.50000   0.50000   0.77230   1.000
    N1      N    0.50000   0.41503   0.50000   1.000
    C65     C    0.50000   0.30390   0.50000   1.000
    C66     C    0.50000   0.24630   0.50000   1.000
    C67     C    0.50000   0.19900   0.50000   1.000
    C68     C    0.50000   0.14120   0.50000   1.000
    C69     C    0.50000   0.02970   0.50000   1.000
    N2      N    0.50000   0.58497   0.50000   1.000
    C70     C    0.50000   0.69610   0.50000   1.000
    C71     C    0.50000   0.75370   0.50000   1.000
    C72     C    0.50000   0.80100   0.50000   1.000
    C73     C    0.50000   0.85880   0.50000   1.000
    C74     C    0.50000   0.97030   0.50000   1.000
    N3      N    0.58497   0.50000   0.50000   1.000
    C75     C    0.69610   0.50000   0.50000   1.000
    C76     C    0.75370   0.50000   0.50000   1.000
    C77     C    0.80100   0.50000   0.50000   1.000
    C78     C    0.85880   0.50000   0.50000   1.000
    C79     C    0.97030   0.50000   0.50000   1.000
    N4      N    0.41503   0.50000   0.50000   1.000
    C80     C    0.30390   0.50000   0.50000   1.000
    C81     C    0.24630   0.50000   0.50000   1.000
    C82     C    0.19900   0.50000   0.50000   1.000
    C83     C    0.14120   0.50000   0.50000   1.000
    C84     C    0.02970   0.50000   0.50000   1.000
    F3      F    0.54544   0.54544   0.00000   1.000
    F4      F    0.45456   0.45456   0.00000   1.000
    F5      F    0.45456   0.54544   0.00000   1.000
    F6      F    0.54544   0.45456   0.00000   1.000
    C85     C    0.97230   0.88740   0.87750   1.000
    H65     H    0.95300   0.90660   0.78850   1.000
    C86     C    0.97050   0.83290   0.87390   1.000
    H66     H    0.94940   0.81490   0.78670   1.000
    C87     C    0.95600   0.61320   0.94040   1.000
    H67     H    0.92550   0.63210   0.89830   1.000
    C88     C    0.95560   0.55830   0.94120   1.000
    H68     H    0.92470   0.53970   0.90110   1.000
    C89     C    0.02770   0.11260   0.87750   1.000
    H69     H    0.04700   0.09340   0.78850   1.000
    C90     C    0.02950   0.16710   0.87390   1.000
    H70     H    0.05060   0.18510   0.78670   1.000
    C91     C    0.04400   0.38680   0.94040   1.000
    H71     H    0.07450   0.36790   0.89830   1.000
    C92     C    0.04440   0.44170   0.94120   1.000
    H72     H    0.07530   0.46030   0.90110   1.000
    C93     C    0.11260   0.97230   0.87750   1.000
    H73     H    0.09340   0.95300   0.78850   1.000
    C94     C    0.16710   0.97050   0.87390   1.000
    H74     H    0.18510   0.94940   0.78670   1.000
    C95     C    0.38680   0.95600   0.94040   1.000
    H75     H    0.36790   0.92550   0.89830   1.000
    C96     C    0.44170   0.95560   0.94120   1.000
    H76     H    0.46030   0.92470   0.90110   1.000
    C97     C    0.88740   0.02770   0.87750   1.000
    H77     H    0.90660   0.04700   0.78850   1.000
    C98     C    0.83290   0.02950   0.87390   1.000
    H78     H    0.81490   0.05060   0.78670   1.000
    C99     C    0.61320   0.04400   0.94040   1.000
    H79     H    0.63210   0.07450   0.89830   1.000
    C100    C    0.55830   0.04440   0.94120   1.000
    H80     H    0.53970   0.07530   0.90110   1.000
    C101    C    0.02770   0.88740   0.12250   1.000
    H81     H    0.04700   0.90660   0.21150   1.000
    C102    C    0.02950   0.83290   0.12610   1.000
    H82     H    0.05060   0.81490   0.21330   1.000
    C103    C    0.04400   0.61320   0.05960   1.000
    H83     H    0.07450   0.63210   0.10170   1.000
    C104    C    0.04440   0.55830   0.05880   1.000
    H84     H    0.07530   0.53970   0.09890   1.000
    C105    C    0.97230   0.11260   0.12250   1.000
    H85     H    0.95300   0.09340   0.21150   1.000
    C106    C    0.97050   0.16710   0.12610   1.000
    H86     H    0.94940   0.18510   0.21330   1.000
    C107    C    0.95600   0.38680   0.05960   1.000
    H87     H    0.92550   0.36790   0.10170   1.000
    C108    C    0.95560   0.44170   0.05880   1.000
    H88     H    0.92470   0.46030   0.09890   1.000
    C109    C    0.88740   0.97230   0.12250   1.000
    H89     H    0.90660   0.95300   0.21150   1.000
    C110    C    0.83290   0.97050   0.12610   1.000
    H90     H    0.81490   0.94940   0.21330   1.000
    C111    C    0.61320   0.95600   0.05960   1.000
    H91     H    0.63210   0.92550   0.10170   1.000
    C112    C    0.55830   0.95560   0.05880   1.000
    H92     H    0.53970   0.92470   0.09890   1.000
    C113    C    0.11260   0.02770   0.12250   1.000
    H93     H    0.09340   0.04700   0.21150   1.000
    C114    C    0.16710   0.02950   0.12610   1.000
    H94     H    0.18510   0.05060   0.21330   1.000
    C115    C    0.38680   0.04400   0.05960   1.000
    H95     H    0.36790   0.07450   0.10170   1.000
    C116    C    0.44170   0.04440   0.05880   1.000
    H96     H    0.46030   0.07530   0.09890   1.000
    C117    C    0.02770   0.11260   0.12250   1.000
    H97     H    0.04700   0.09340   0.21150   1.000
    C118    C    0.02950   0.16710   0.12610   1.000
    H98     H    0.05060   0.18510   0.21330   1.000
    C119    C    0.04400   0.38680   0.05960   1.000
    H99     H    0.07450   0.36790   0.10170   1.000
    C120    C    0.04440   0.44170   0.05880   1.000
    H100    H    0.07530   0.46030   0.09890   1.000
    C121    C    0.97230   0.88740   0.12250   1.000
    H101    H    0.95300   0.90660   0.21150   1.000
    C122    C    0.97050   0.83290   0.12610   1.000
    H102    H    0.94940   0.81490   0.21330   1.000
    C123    C    0.95600   0.61320   0.05960   1.000
    H103    H    0.92550   0.63210   0.10170   1.000
    C124    C    0.95560   0.55830   0.05880   1.000
    H104    H    0.92470   0.53970   0.09890   1.000
    C125    C    0.88740   0.02770   0.12250   1.000
    H105    H    0.90660   0.04700   0.21150   1.000
    C126    C    0.83290   0.02950   0.12610   1.000
    H106    H    0.81490   0.05060   0.21330   1.000
    C127    C    0.61320   0.04400   0.05960   1.000
    H107    H    0.63210   0.07450   0.10170   1.000
    C128    C    0.55830   0.04440   0.05880   1.000
    H108    H    0.53970   0.07530   0.09890   1.000
    C129    C    0.11260   0.97230   0.12250   1.000
    H109    H    0.09340   0.95300   0.21150   1.000
    C130    C    0.16710   0.97050   0.12610   1.000
    H110    H    0.18510   0.94940   0.21330   1.000
    C131    C    0.38680   0.95600   0.05960   1.000
    H111    H    0.36790   0.92550   0.10170   1.000
    C132    C    0.44170   0.95560   0.05880   1.000
    H112    H    0.46030   0.92470   0.09890   1.000
    C133    C    0.97230   0.11260   0.87750   1.000
    H113    H    0.95300   0.09340   0.78850   1.000
    C134    C    0.97050   0.16710   0.87390   1.000
    H114    H    0.94940   0.18510   0.78670   1.000
    C135    C    0.95600   0.38680   0.94040   1.000
    H115    H    0.92550   0.36790   0.89830   1.000
    C136    C    0.95560   0.44170   0.94120   1.000
    H116    H    0.92470   0.46030   0.90110   1.000
    C137    C    0.02770   0.88740   0.87750   1.000
    H117    H    0.04700   0.90660   0.78850   1.000
    C138    C    0.02950   0.83290   0.87390   1.000
    H118    H    0.05060   0.81490   0.78670   1.000
    C139    C    0.04400   0.61320   0.94040   1.000
    H119    H    0.07450   0.63210   0.89830   1.000
    C140    C    0.04440   0.55830   0.94120   1.000
    H120    H    0.07530   0.53970   0.90110   1.000
    C141    C    0.11260   0.02770   0.87750   1.000
    H121    H    0.09340   0.04700   0.78850   1.000
    C142    C    0.16710   0.02950   0.87390   1.000
    H122    H    0.18510   0.05060   0.78670   1.000
    C143    C    0.38680   0.04400   0.94040   1.000
    H123    H    0.36790   0.07450   0.89830   1.000
    C144    C    0.44170   0.04440   0.94120   1.000
    H124    H    0.46030   0.07530   0.90110   1.000
    C145    C    0.88740   0.97230   0.87750   1.000
    H125    H    0.90660   0.95300   0.78850   1.000
    C146    C    0.83290   0.97050   0.87390   1.000
    H126    H    0.81490   0.94940   0.78670   1.000
    C147    C    0.61320   0.95600   0.94040   1.000
    H127    H    0.63210   0.92550   0.89830   1.000
    C148    C    0.55830   0.95560   0.94120   1.000
    H128    H    0.53970   0.92470   0.90110   1.000
    Zn2     Zn   0.00000   0.00000   0.00000   1.000
    Si2     Si   0.00000   0.00000   0.50000   1.000
    F7      F    0.00000   0.00000   0.72770   1.000
    F8      F    0.00000   0.00000   0.27230   1.000
    N5      N    0.00000   0.91503   0.00000   1.000
    C149    C    0.00000   0.80390   0.00000   1.000
    C150    C    0.00000   0.74630   0.00000   1.000
    C151    C    0.00000   0.69900   0.00000   1.000
    C152    C    0.00000   0.64120   0.00000   1.000
    C153    C    0.00000   0.52970   0.00000   1.000
    N6      N    0.00000   0.08497   0.00000   1.000
    C154    C    0.00000   0.19610   0.00000   1.000
    C155    C    0.00000   0.25370   0.00000   1.000
    C156    C    0.00000   0.30100   0.00000   1.000
    C157    C    0.00000   0.35880   0.00000   1.000
    C158    C    0.00000   0.47030   0.00000   1.000
    N7      N    0.08497   0.00000   0.00000   1.000
    C159    C    0.19610   0.00000   0.00000   1.000
    C160    C    0.25370   0.00000   0.00000   1.000
    C161    C    0.30100   0.00000   0.00000   1.000
    C162    C    0.35880   0.00000   0.00000   1.000
    C163    C    0.47030   0.00000   0.00000   1.000
    N8      N    0.91503   0.00000   0.00000   1.000
    C164    C    0.80390   0.00000   0.00000   1.000
    C165    C    0.74630   0.00000   0.00000   1.000
    C166    C    0.69900   0.00000   0.00000   1.000
    C167    C    0.64120   0.00000   0.00000   1.000
    C168    C    0.52970   0.00000   0.00000   1.000
    F9      F    0.04544   0.04544   0.50000   1.000
    F10     F    0.95456   0.95456   0.50000   1.000
    F11     F    0.95456   0.04544   0.50000   1.000
    F12     F    0.04544   0.95456   0.50000   1.000
