data_functionalizedCrystal
_audit_creation_method	'EQeq! by Chris Wilmer'
_symmetry_space_group_name_H-M	'P1'
_symmetry_Int_Tables_number	1
_symmetry_cell_setting	triclinic
loop_
_symmetry_equiv_pos_as_xyz
  x,y,z
_cell_length_a	9.1425
_cell_length_b	9.1425
_cell_length_c	12.663
_cell_angle_alpha	90
_cell_angle_beta	90
_cell_angle_gamma	90
loop_
_atom_site_label
_atom_site_type_symbol
_atom_site_fract_x
_atom_site_fract_y
_atom_site_fract_z
_atom_site_charge
Mof_O 	O 	0.237	0.032	0.3368	7.231
Mof_C 	C 	0.545	0.03	0.341	14.548
Mof_H 	H 	0.4944	0.0485	0.4033	-5.766
Mof_C 	C 	0.691	0.034	0.342	-31.571
Mof_H 	H 	0.7406	0.0594	0.4039	-1.621
Mof_Zn	Zn	0.0348	0.9584	0.3751	0.976
Mof_O 	O 	0.079	0.03	0.248	9.506
Mof_C 	C 	0.47	0.015	0.3447	-9.575
Mof_C 	C 	0.318	0.009	0.346	6.993
Mof_C 	C 	0.242	0.99	0.252	2.819
Mof_O 	O 	0.755	0.002	0.342	50.81
Mof_H 	H 	0.5208	0.031	0.4073	6.771
Mof_H 	H 	0.2647	0.031	0.4073	-2.986
Mof_C 	C 	0.317	0.97	0.157	11.74
Mof_C 	C 	0.469	0.978	0.156	-9.912
Mof_O 	O 	0.239	0.977	0.3371	-18.824
Mof_C 	C 	0.542	0.97	0.344	21.39
Mof_H 	H 	0.4905	0.9516	0.4055	-3.796
Mof_C 	C 	0.685	0.968	0.345	-33.219
Mof_H 	H 	0.7331	0.9456	0.4078	1.863
Mof_O 	O 	0.763	0.968	0.8368	0.933
Mof_C 	C 	0.455	0.97	0.841	10.093
Mof_H 	H 	0.5056	0.9515	0.9033	-4.081
Mof_C 	C 	0.309	0.966	0.842	-19.15
Mof_H 	H 	0.2594	0.9406	0.9039	-0.787
Mof_Zn	Zn	0.9652	0.0416	0.8751	1.454
Mof_O 	O 	0.921	0.97	0.748	-0.332
Mof_C 	C 	0.53	0.985	0.8447	-6.63
Mof_C 	C 	0.682	0.991	0.846	5.849
Mof_C 	C 	0.758	0.01	0.752	2.256
Mof_O 	O 	0.245	0.998	0.842	31.253
Mof_H 	H 	0.4792	0.969	0.9073	5.027
Mof_H 	H 	0.7353	0.969	0.9073	-1.505
Mof_C 	C 	0.683	0.03	0.657	8.21
Mof_C 	C 	0.531	0.022	0.656	-6.163
Mof_O 	O 	0.761	0.023	0.8371	-9.083
Mof_C 	C 	0.458	0.03	0.844	13.592
Mof_H 	H 	0.5095	0.0484	0.9055	-2.055
Mof_C 	C 	0.315	0.032	0.845	-22.037
Mof_H 	H 	0.2669	0.0544	0.9078	2.214
Mof_O 	O 	0.968	0.237	0.5868	3.678
Mof_C 	C 	0.97	0.545	0.591	-0.22
Mof_H 	H 	0.9515	0.4944	0.6533	-0.008
Mof_C 	C 	0.966	0.691	0.592	-11.283
Mof_H 	H 	0.9406	0.7406	0.6539	1.258
Mof_Zn	Zn	0.0416	0.0348	0.6251	0.593
Mof_O 	O 	0.97	0.079	0.498	19.201
Mof_C 	C 	0.985	0.47	0.5947	-0.879
Mof_C 	C 	0.991	0.318	0.596	0.057
Mof_C 	C 	0.01	0.242	0.502	-1.461
Mof_O 	O 	0.998	0.755	0.592	12.624
Mof_H 	H 	0.969	0.5208	0.6573	0.934
Mof_H 	H 	0.969	0.2647	0.6573	-0.528
Mof_C 	C 	0.03	0.317	0.407	2.602
Mof_C 	C 	0.022	0.469	0.406	-4.526
Mof_O 	O 	0.023	0.239	0.5871	-5.289
Mof_C 	C 	0.03	0.542	0.594	7.993
Mof_H 	H 	0.0484	0.4905	0.6555	-2.533
Mof_C 	C 	0.032	0.685	0.595	-3.732
Mof_H 	H 	0.0544	0.7331	0.6578	-1.567
Mof_O 	O 	0.032	0.763	0.0868	8.724
Mof_C 	C 	0.03	0.455	0.091	4.416
Mof_H 	H 	0.0485	0.5056	0.1533	-2.628
Mof_C 	C 	0.034	0.309	0.092	5.134
Mof_H 	H 	0.0594	0.2594	0.1539	-0.724
Mof_Zn	Zn	0.9584	0.9652	0.1251	-0.18
Mof_O 	O 	0.03	0.921	0.998	-5.939
Mof_C 	C 	0.015	0.53	0.0947	-0.916
Mof_C 	C 	0.009	0.682	0.096	-4.398
Mof_C 	C 	0.99	0.758	0.002	-5.875
Mof_O 	O 	0.002	0.245	0.092	-5.341
Mof_H 	H 	0.031	0.4792	0.1573	1.309
Mof_H 	H 	0.031	0.7353	0.1573	0.242
Mof_C 	C 	0.97	0.683	0.907	-6.131
Mof_C 	C 	0.978	0.531	0.906	3.122
Mof_O 	O 	0.977	0.761	0.0871	-4.162
Mof_C 	C 	0.97	0.458	0.094	-0.264
Mof_H 	H 	0.9516	0.5095	0.1555	0.94
Mof_C 	C 	0.968	0.315	0.095	-0.358
Mof_H 	H 	0.9456	0.2669	0.1578	0.896
Mof_O 	O 	0.763	0.032	0.6632	3.32
Mof_C 	C 	0.455	0.03	0.659	7.899
Mof_H 	H 	0.5056	0.0485	0.5967	-3.006
Mof_C 	C 	0.309	0.034	0.658	-18.794
Mof_H 	H 	0.2594	0.0594	0.5961	0.576
Mof_Zn	Zn	0.9652	0.9584	0.6249	0.767
Mof_O 	O 	0.921	0.03	0.752	0.857
Mof_C 	C 	0.53	0.015	0.6553	-5.447
Mof_C 	C 	0.682	0.009	0.654	4.601
Mof_C 	C 	0.758	0.99	0.748	1.606
Mof_O 	O 	0.245	0.002	0.658	28.868
Mof_H 	H 	0.4792	0.031	0.5927	3.889
Mof_H 	H 	0.7353	0.031	0.5927	-2.637
Mof_C 	C 	0.683	0.97	0.843	8.283
Mof_C 	C 	0.531	0.978	0.844	-7.519
Mof_O 	O 	0.761	0.977	0.6629	-10.873
Mof_C 	C 	0.458	0.97	0.656	12.507
Mof_H 	H 	0.5095	0.9516	0.5945	-2.086
Mof_C 	C 	0.315	0.968	0.655	-18.701
Mof_H 	H 	0.2669	0.9456	0.5922	1.357
Mof_O 	O 	0.237	0.968	0.1632	-0.559
Mof_C 	C 	0.545	0.97	0.159	13.91
Mof_H 	H 	0.4944	0.9515	0.0967	-5.291
Mof_C 	C 	0.691	0.966	0.158	-27.823
Mof_H 	H 	0.7406	0.9406	0.0961	-1.255
Mof_Zn	Zn	0.0348	0.0416	0.1249	0.826
Mof_O 	O 	0.079	0.97	0.252	-9.156
Mof_C 	C 	0.47	0.985	0.1553	-8.781
Mof_C 	C 	0.318	0.991	0.154	8.936
Mof_C 	C 	0.242	0.01	0.248	4.987
Mof_O 	O 	0.755	0.998	0.158	46.186
Mof_H 	H 	0.5208	0.969	0.0927	5.885
Mof_H 	H 	0.2647	0.969	0.0927	-3.274
Mof_C 	C 	0.317	0.03	0.343	13.544
Mof_C 	C 	0.469	0.022	0.344	-10.769
Mof_O 	O 	0.239	0.023	0.1629	-11.921
Mof_C 	C 	0.542	0.03	0.156	18.418
Mof_H 	H 	0.4905	0.0484	0.0945	-3.35
Mof_C 	C 	0.685	0.032	0.155	-30.833
Mof_H 	H 	0.7331	0.0544	0.0922	1.929
Mof_O 	O 	0.032	0.237	0.4132	-4.344
Mof_C 	C 	0.03	0.545	0.409	8.152
Mof_H 	H 	0.0485	0.4944	0.3467	-3.586
Mof_C 	C 	0.034	0.691	0.408	-3.852
Mof_H 	H 	0.0594	0.7406	0.3461	-0.506
Mof_Zn	Zn	0.9584	0.0348	0.3749	-0.892
Mof_O 	O 	0.03	0.079	0.502	-19.266
Mof_C 	C 	0.015	0.47	0.4053	-4.014
Mof_C 	C 	0.009	0.318	0.404	3.983
Mof_C 	C 	0.99	0.242	0.498	-0.091
Mof_O 	O 	0.002	0.755	0.408	10.209
Mof_H 	H 	0.031	0.5208	0.3427	3.025
Mof_H 	H 	0.031	0.2647	0.3427	-1.045
Mof_C 	C 	0.97	0.317	0.593	2.677
Mof_C 	C 	0.978	0.469	0.594	-1.141
Mof_O 	O 	0.977	0.239	0.4129	0.164
Mof_C 	C 	0.97	0.542	0.406	4.636
Mof_H 	H 	0.9516	0.4905	0.3445	-0.106
Mof_C 	C 	0.968	0.685	0.405	-11.027
Mof_H 	H 	0.9456	0.7331	0.3422	1.919
Mof_O 	O 	0.968	0.763	0.9132	-15.067
Mof_C 	C 	0.97	0.455	0.909	-6.917
Mof_H 	H 	0.9515	0.5056	0.8467	2.205
Mof_C 	C 	0.966	0.309	0.908	1.98
Mof_H 	H 	0.9406	0.2594	0.8461	2.111
Mof_Zn	Zn	0.0416	0.9652	0.8749	-0.325
Mof_O 	O 	0.97	0.921	0.002	6.088
Mof_C 	C 	0.985	0.53	0.9053	3.257
Mof_C 	C 	0.991	0.682	0.904	1.352
Mof_C 	C 	0.01	0.758	0.998	-3.88
Mof_O 	O 	0.998	0.245	0.908	-10.438
Mof_H 	H 	0.969	0.4792	0.8427	-1.256
Mof_H 	H 	0.969	0.7353	0.8427	2.542
Mof_C 	C 	0.03	0.683	0.093	-1.708
Mof_C 	C 	0.022	0.531	0.094	-0.963
Mof_O 	O 	0.023	0.761	0.9129	17.289
Mof_C 	C 	0.03	0.458	0.906	1.47
Mof_H 	H 	0.0484	0.5095	0.8445	-2.13
Mof_C 	C 	0.032	0.315	0.905	13.31
Mof_H 	H 	0.0544	0.2669	0.8422	-2.692
Mof_Zn	Zn	0.0367	0.0367	0.375	1.229
Mof_Zn	Zn	0.9633	0.9633	0.875	1.175
Mof_Zn	Zn	0.9633	0.0367	0.625	0.545
Mof_Zn	Zn	0.0367	0.9633	0.125	0.757
Mof_C 	C 	0.301	0	0.25	-3.773
Mof_C 	C 	0.464	0	0.25	-31.891
Mof_C 	C 	0.771	0	0.25	10.386
Mof_O 	O 	0.9169	0	0.25	-7.677
Mof_C 	C 	0.731	0	0.25	-18.517
Mof_C 	C 	0.546	0	0.25	30.663
Mof_C 	C 	0.699	0	0.75	-1.241
Mof_C 	C 	0.536	0	0.75	-20.012
Mof_C 	C 	0.229	0	0.75	6.889
Mof_O 	O 	0.0831	0	0.75	-5.594
Mof_C 	C 	0.269	0	0.75	-11.139
Mof_C 	C 	0.454	0	0.75	19.214
Mof_C 	C 	-3.36585e-33	0.301	0.5	2.632
Mof_C 	C 	-3.36585e-33	0.464	0.5	-7.267
Mof_C 	C 	-3.36585e-33	0.771	0.5	2.66
Mof_O 	O 	8.55903e-33	0.9169	0.5	-3.222
Mof_C 	C 	2.59659e-33	0.731	0.5	-4.246
Mof_C 	C 	2.59659e-33	0.546	0.5	4.931
Mof_C 	C 	-0	0.699	-0	8.868
Mof_C 	C 	-0	0.536	-0	7.404
Mof_C 	C 	-2.98122e-33	0.229	-0	-1.32
Mof_O 	O 	-7.45305e-34	0.0831	-0	-1.009
Mof_C 	C 	-2.98122e-33	0.269	-0	2.637
Mof_C 	C 	5.96244e-33	0.454	-0	-12.497
_end
