data_functionalizedCrystal
_audit_creation_method	'EQeq! by Chris Wilmer'
_symmetry_space_group_name_H-M	'P1'
_symmetry_Int_Tables_number	1
_symmetry_cell_setting	triclinic
loop_
_symmetry_equiv_pos_as_xyz
  x,y,z
_cell_length_a	21.441
_cell_length_b	21.441
_cell_length_c	9.655
_cell_angle_alpha	90
_cell_angle_beta	90
_cell_angle_gamma	90
loop_
_atom_site_label
_atom_site_type_symbol
_atom_site_fract_x
_atom_site_fract_y
_atom_site_fract_z
_atom_site_charge
Mof_O 	O 	0.0631	0.431	0.0894	-0.468
Mof_C 	C 	0.0728	0.4048	0.2039	0.388
Mof_C 	C 	0.1575	0.2526	0.1039	0.039
Mof_C 	C 	0.1118	0.3017	0.1011	0.015
Mof_C 	C 	0.1163	0.3494	0.205	-0.091
Mof_C 	C 	0.1616	0.3468	0.3053	-0.004
Mof_H 	H 	0.1639	0.3774	0.3734	0.044
Mof_C 	C 	0.2046	0.2972	0.3041	-0.03
Mof_H 	H 	0.2344	0.295	0.3738	0.044
Mof_C 	C 	0.064	0.2987	0.0044	0.007
Mof_H 	H 	0.0335	0.3296	0.0027	0.035
Mof_C 	C 	0.204	0.2533	0.2063	-0.073
Mof_H 	H 	0.2349	0.2228	0.2059	0.066
Mof_C 	C 	0.1553	0.2045	0.0031	-0.091
Mof_C 	C 	0.0614	0.2497	0.9098	-0.193
Mof_H 	H 	0.0284	0.248	0.8475	0.112
Mof_O 	O 	0.1003	0.1596	0.8112	-0.434
Mof_H 	H 	0.1288	0.1344	0.8198	0.256
Mof_C 	C 	0.106	0.2039	0.9058	0.248
Mof_O 	O 	0.05168	0.42231	0.318	-0.472
Mof_C 	C 	0.064	0.4867	0.7806	0.034
Mof_H 	H 	0.0779	0.4459	0.8109	0.028
Mof_H 	H 	0.0934	0.5175	0.8147	-0.017
Mof_C 	C 	0.0621	0.4889	0.6216	-0.002
Mof_H 	H 	0.0898	0.5217	0.5895	0.001
Mof_H 	H 	0.0776	0.4496	0.5855	0.04
Mof_C 	C 	0.0361	0.4464	0.6239	-0.179
Mof_H 	H 	0.0786	0.4482	0.5897	0.038
Mof_H 	H 	0.0176	0.4077	0.5923	0.027
Mof_C 	C 	0.0366	0.4477	0.7837	-0.236
Mof_H 	H 	0.0197	0.4089	0.8186	-0.018
Mof_H 	H 	0.0793	0.4512	0.816	0.063
Mof_O 	O 	0.9369	0.569	0.0894	-0.455
Mof_C 	C 	0.9272	0.5952	0.2039	0.386
Mof_C 	C 	0.8425	0.7474	0.1039	0.041
Mof_C 	C 	0.8882	0.6983	0.1011	0.015
Mof_C 	C 	0.8837	0.6506	0.205	-0.087
Mof_C 	C 	0.8384	0.6532	0.3053	-0.006
Mof_H 	H 	0.8361	0.6226	0.3734	0.045
Mof_C 	C 	0.7954	0.7028	0.3041	-0.026
Mof_H 	H 	0.7656	0.705	0.3738	0.044
Mof_C 	C 	0.936	0.7013	0.0044	0.014
Mof_H 	H 	0.9665	0.6704	0.0027	0.046
Mof_C 	C 	0.796	0.7467	0.2063	-0.073
Mof_H 	H 	0.7651	0.7772	0.2059	0.067
Mof_C 	C 	0.8447	0.7955	0.0031	-0.09
Mof_C 	C 	0.9386	0.7503	0.9098	-0.193
Mof_H 	H 	0.9716	0.752	0.8475	0.128
Mof_O 	O 	0.8997	0.8404	0.8112	-0.42
Mof_H 	H 	0.8712	0.8656	0.8198	0.262
Mof_C 	C 	0.894	0.7961	0.9058	0.253
Mof_O 	O 	0.94832	0.57769	0.318	-0.452
Mof_C 	C 	0.936	0.5133	0.7806	-0.023
Mof_H 	H 	0.9221	0.5541	0.8109	-0.001
Mof_H 	H 	0.9066	0.4825	0.8147	0.051
Mof_C 	C 	0.9379	0.5111	0.6216	-0.045
Mof_H 	H 	0.9102	0.4783	0.5895	0.034
Mof_H 	H 	0.9224	0.5504	0.5855	-0.007
Mof_C 	C 	0.9639	0.5536	0.6239	0.155
Mof_H 	H 	0.9214	0.5518	0.5897	-0.007
Mof_H 	H 	0.9824	0.5923	0.5923	0.008
Mof_C 	C 	0.9634	0.5523	0.7837	0.146
Mof_H 	H 	0.9803	0.5911	0.8186	0.046
Mof_H 	H 	0.9207	0.5488	0.816	-0.018
Mof_O 	O 	0.069	0.5631	0.0894	-0.473
Mof_C 	C 	0.0952	0.5728	0.2039	0.388
Mof_C 	C 	0.2474	0.6575	0.1039	0.038
Mof_C 	C 	0.1983	0.6118	0.1011	0.015
Mof_C 	C 	0.1506	0.6163	0.205	-0.094
Mof_C 	C 	0.1532	0.6616	0.3053	-0.004
Mof_H 	H 	0.1226	0.6639	0.3734	0.04
Mof_C 	C 	0.2028	0.7046	0.3041	-0.031
Mof_H 	H 	0.205	0.7344	0.3738	0.044
Mof_C 	C 	0.2013	0.564	0.0044	0.007
Mof_H 	H 	0.1704	0.5335	0.0027	0.041
Mof_C 	C 	0.2467	0.704	0.2063	-0.072
Mof_H 	H 	0.2772	0.7349	0.2059	0.067
Mof_C 	C 	0.2955	0.6553	0.0031	-0.093
Mof_C 	C 	0.2503	0.5614	0.9098	-0.191
Mof_H 	H 	0.252	0.5284	0.8475	0.119
Mof_O 	O 	0.3404	0.6003	0.8112	-0.427
Mof_H 	H 	0.3656	0.6288	0.8198	0.259
Mof_C 	C 	0.2961	0.606	0.9058	0.251
Mof_O 	O 	0.07769	0.55168	0.318	-0.47
Mof_C 	C 	0.0133	0.564	0.7806	-0.263
Mof_H 	H 	0.0541	0.5779	0.8109	0.058
Mof_H 	H 	0.9825	0.5934	0.8147	0.02
Mof_C 	C 	0.0111	0.5621	0.6216	-0.234
Mof_H 	H 	0.9783	0.5898	0.5895	0.052
Mof_H 	H 	0.0504	0.5776	0.5855	0.026
Mof_C 	C 	0.0536	0.5361	0.6239	0.099
Mof_H 	H 	0.0518	0.5786	0.5897	0.031
Mof_H 	H 	0.0923	0.5176	0.5923	-0.014
Mof_C 	C 	0.0523	0.5366	0.7837	0.102
Mof_H 	H 	0.0911	0.5197	0.8186	-0.008
Mof_H 	H 	0.0488	0.5793	0.816	0.013
Mof_O 	O 	0.931	0.4369	0.0894	-0.45
Mof_C 	C 	0.9048	0.4272	0.2039	0.385
Mof_C 	C 	0.7526	0.3425	0.1039	0.04
Mof_C 	C 	0.8017	0.3882	0.1011	0.013
Mof_C 	C 	0.8494	0.3837	0.205	-0.085
Mof_C 	C 	0.8468	0.3384	0.3053	-0.007
Mof_H 	H 	0.8774	0.3361	0.3734	0.049
Mof_C 	C 	0.7972	0.2954	0.3041	-0.025
Mof_H 	H 	0.795	0.2656	0.3738	0.044
Mof_C 	C 	0.7987	0.436	0.0044	0.014
Mof_H 	H 	0.8296	0.4665	0.0027	0.039
Mof_C 	C 	0.7533	0.296	0.2063	-0.074
Mof_H 	H 	0.7228	0.2651	0.2059	0.066
Mof_C 	C 	0.7045	0.3447	0.0031	-0.088
Mof_C 	C 	0.7497	0.4386	0.9098	-0.195
Mof_H 	H 	0.748	0.4716	0.8475	0.12
Mof_O 	O 	0.6596	0.3997	0.8112	-0.427
Mof_H 	H 	0.6344	0.3712	0.8198	0.259
Mof_C 	C 	0.7039	0.394	0.9058	0.25
Mof_O 	O 	0.92231	0.44832	0.318	-0.454
Mof_C 	C 	0.9867	0.436	0.7806	0.274
Mof_H 	H 	0.9459	0.4221	0.8109	-0.031
Mof_H 	H 	0.0175	0.4066	0.8147	0.014
Mof_C 	C 	0.9889	0.4379	0.6216	0.188
Mof_H 	H 	0.0217	0.4102	0.5895	-0.018
Mof_H 	H 	0.9496	0.4224	0.5855	0.007
Mof_C 	C 	0.9464	0.4639	0.6239	-0.123
Mof_H 	H 	0.9482	0.4214	0.5897	0
Mof_H 	H 	0.9077	0.4824	0.5923	0.048
Mof_C 	C 	0.9477	0.4634	0.7837	-0.192
Mof_H 	H 	0.9089	0.4803	0.8186	0.036
Mof_H 	H 	0.9512	0.4207	0.816	0.031
Mof_O 	O 	0.4369	0.931	0.9106	-0.45
Mof_C 	C 	0.4272	0.9048	0.7961	0.385
Mof_C 	C 	0.3425	0.7526	0.8961	0.04
Mof_C 	C 	0.3882	0.8017	0.8989	0.013
Mof_C 	C 	0.3837	0.8494	0.795	-0.085
Mof_C 	C 	0.3384	0.8468	0.6947	-0.007
Mof_H 	H 	0.3361	0.8774	0.6266	0.049
Mof_C 	C 	0.2954	0.7972	0.6959	-0.025
Mof_H 	H 	0.2656	0.795	0.6262	0.044
Mof_C 	C 	0.436	0.7987	0.9956	0.014
Mof_H 	H 	0.4665	0.8296	0.9973	0.039
Mof_C 	C 	0.296	0.7533	0.7937	-0.074
Mof_H 	H 	0.2651	0.7228	0.7941	0.066
Mof_C 	C 	0.3447	0.7045	0.9969	-0.088
Mof_C 	C 	0.4386	0.7497	0.0902	-0.195
Mof_H 	H 	0.4716	0.748	0.1525	0.12
Mof_O 	O 	0.3997	0.6596	0.1888	-0.427
Mof_H 	H 	0.3712	0.6344	0.1802	0.259
Mof_C 	C 	0.394	0.7039	0.0942	0.25
Mof_O 	O 	0.44832	0.92231	0.682	-0.454
Mof_C 	C 	0.436	0.9867	0.2194	0.274
Mof_H 	H 	0.4221	0.9459	0.1891	-0.031
Mof_H 	H 	0.4066	0.0175	0.1853	0.014
Mof_C 	C 	0.4379	0.9889	0.3784	0.188
Mof_H 	H 	0.4102	0.0217	0.4105	-0.018
Mof_H 	H 	0.4224	0.9496	0.4145	0.007
Mof_C 	C 	0.4639	0.9464	0.3761	-0.123
Mof_H 	H 	0.4214	0.9482	0.4103	0
Mof_H 	H 	0.4824	0.9077	0.4077	0.048
Mof_C 	C 	0.4634	0.9477	0.2163	-0.192
Mof_H 	H 	0.4803	0.9089	0.1814	0.036
Mof_H 	H 	0.4207	0.9512	0.184	0.031
Mof_O 	O 	0.5631	0.069	0.9106	-0.473
Mof_C 	C 	0.5728	0.0952	0.7961	0.388
Mof_C 	C 	0.6575	0.2474	0.8961	0.038
Mof_C 	C 	0.6118	0.1983	0.8989	0.015
Mof_C 	C 	0.6163	0.1506	0.795	-0.094
Mof_C 	C 	0.6616	0.1532	0.6947	-0.004
Mof_H 	H 	0.6639	0.1226	0.6266	0.04
Mof_C 	C 	0.7046	0.2028	0.6959	-0.031
Mof_H 	H 	0.7344	0.205	0.6262	0.044
Mof_C 	C 	0.564	0.2013	0.9956	0.007
Mof_H 	H 	0.5335	0.1704	0.9973	0.041
Mof_C 	C 	0.704	0.2467	0.7937	-0.072
Mof_H 	H 	0.7349	0.2772	0.7941	0.067
Mof_C 	C 	0.6553	0.2955	0.9969	-0.093
Mof_C 	C 	0.5614	0.2503	0.0902	-0.191
Mof_H 	H 	0.5284	0.252	0.1525	0.119
Mof_O 	O 	0.6003	0.3404	0.1888	-0.427
Mof_H 	H 	0.6288	0.3656	0.1802	0.259
Mof_C 	C 	0.606	0.2961	0.0942	0.251
Mof_O 	O 	0.55168	0.07769	0.682	-0.47
Mof_C 	C 	0.564	0.0133	0.2194	-0.263
Mof_H 	H 	0.5779	0.0541	0.1891	0.058
Mof_H 	H 	0.5934	0.9825	0.1853	0.02
Mof_C 	C 	0.5621	0.0111	0.3784	-0.234
Mof_H 	H 	0.5898	0.9783	0.4105	0.052
Mof_H 	H 	0.5776	0.0504	0.4145	0.026
Mof_C 	C 	0.5361	0.0536	0.3761	0.099
Mof_H 	H 	0.5786	0.0518	0.4103	0.031
Mof_H 	H 	0.5176	0.0923	0.4077	-0.014
Mof_C 	C 	0.5366	0.0523	0.2163	0.102
Mof_H 	H 	0.5197	0.0911	0.1814	-0.008
Mof_H 	H 	0.5793	0.0488	0.184	0.013
Mof_O 	O 	0.431	0.0631	0.9106	-0.469
Mof_C 	C 	0.4048	0.0728	0.7961	0.387
Mof_C 	C 	0.2526	0.1575	0.8961	0.038
Mof_C 	C 	0.3017	0.1118	0.8989	0.014
Mof_C 	C 	0.3494	0.1163	0.795	-0.092
Mof_C 	C 	0.3468	0.1616	0.6947	-0.005
Mof_H 	H 	0.3774	0.1639	0.6266	0.044
Mof_C 	C 	0.2972	0.2046	0.6959	-0.03
Mof_H 	H 	0.295	0.2344	0.6262	0.044
Mof_C 	C 	0.2987	0.064	0.9956	0.007
Mof_H 	H 	0.3296	0.0335	0.9973	0.035
Mof_C 	C 	0.2533	0.204	0.7937	-0.073
Mof_H 	H 	0.2228	0.2349	0.7941	0.066
Mof_C 	C 	0.2045	0.1553	0.9969	-0.091
Mof_C 	C 	0.2497	0.0614	0.0902	-0.193
Mof_H 	H 	0.248	0.0284	0.1525	0.112
Mof_O 	O 	0.1596	0.1003	0.1888	-0.434
Mof_H 	H 	0.1344	0.1288	0.1802	0.256
Mof_C 	C 	0.2039	0.106	0.0942	0.248
Mof_O 	O 	0.42231	0.05168	0.682	-0.472
Mof_C 	C 	0.4867	0.064	0.2194	0.034
Mof_H 	H 	0.4459	0.0779	0.1891	0.028
Mof_H 	H 	0.5175	0.0934	0.1853	-0.017
Mof_C 	C 	0.4889	0.0621	0.3784	-0.002
Mof_H 	H 	0.5217	0.0898	0.4105	0.001
Mof_H 	H 	0.4496	0.0776	0.4145	0.04
Mof_C 	C 	0.4464	0.0361	0.3761	-0.179
Mof_H 	H 	0.4482	0.0786	0.4103	0.038
Mof_H 	H 	0.4077	0.0176	0.4077	0.027
Mof_C 	C 	0.4477	0.0366	0.2163	-0.236
Mof_H 	H 	0.4089	0.0197	0.1814	-0.018
Mof_H 	H 	0.4512	0.0793	0.184	0.063
Mof_O 	O 	0.569	0.9369	0.9106	-0.455
Mof_C 	C 	0.5952	0.9272	0.7961	0.386
Mof_C 	C 	0.7474	0.8425	0.8961	0.041
Mof_C 	C 	0.6983	0.8882	0.8989	0.015
Mof_C 	C 	0.6506	0.8837	0.795	-0.087
Mof_C 	C 	0.6532	0.8384	0.6947	-0.006
Mof_H 	H 	0.6226	0.8361	0.6266	0.045
Mof_C 	C 	0.7028	0.7954	0.6959	-0.026
Mof_H 	H 	0.705	0.7656	0.6262	0.044
Mof_C 	C 	0.7013	0.936	0.9956	0.014
Mof_H 	H 	0.6704	0.9665	0.9973	0.046
Mof_C 	C 	0.7467	0.796	0.7937	-0.073
Mof_H 	H 	0.7772	0.7651	0.7941	0.067
Mof_C 	C 	0.7955	0.8447	0.9969	-0.09
Mof_C 	C 	0.7503	0.9386	0.0902	-0.193
Mof_H 	H 	0.752	0.9716	0.1525	0.128
Mof_O 	O 	0.8404	0.8997	0.1888	-0.42
Mof_H 	H 	0.8656	0.8712	0.1802	0.262
Mof_C 	C 	0.7961	0.894	0.0942	0.253
Mof_O 	O 	0.57769	0.94832	0.682	-0.452
Mof_C 	C 	0.5133	0.936	0.2194	-0.023
Mof_H 	H 	0.5541	0.9221	0.1891	-0.001
Mof_H 	H 	0.4825	0.9066	0.1853	0.051
Mof_C 	C 	0.5111	0.9379	0.3784	-0.045
Mof_H 	H 	0.4783	0.9102	0.4105	0.034
Mof_H 	H 	0.5504	0.9224	0.4145	-0.007
Mof_C 	C 	0.5536	0.9639	0.3761	0.155
Mof_H 	H 	0.5518	0.9214	0.4103	-0.007
Mof_H 	H 	0.5923	0.9824	0.4077	0.008
Mof_C 	C 	0.5523	0.9634	0.2163	0.146
Mof_H 	H 	0.5911	0.9803	0.1814	0.046
Mof_H 	H 	0.5488	0.9207	0.184	-0.018
Mof_Zn	Zn	-3.66536e-33	0.5	0.35545	1.206
Mof_Zn	Zn	-3.82339e-33	0.5	0.05132	1.204
Mof_N 	N 	-4.73035e-33	0.5	0.5668	-0.215
Mof_N 	N 	-1.28023e-32	0.5	0.8387	-0.211
Mof_Zn	Zn	0.5	2.84366e-33	0.64455	1.206
Mof_Zn	Zn	0.5	0	0.94868	1.204
Mof_N 	N 	0.5	0	0.4332	-0.215
Mof_N 	N 	0.5	0	0.1613	-0.211
_end
