data_functionalizedCrystal
_audit_creation_method	'EQeq! by Chris Wilmer'
_symmetry_space_group_name_H-M	'P1'
_symmetry_Int_Tables_number	1
_symmetry_cell_setting	triclinic
loop_
_symmetry_equiv_pos_as_xyz
  x,y,z
_cell_length_a	26.81
_cell_length_b	26.81
_cell_length_c	25.86
_cell_angle_alpha	90
_cell_angle_beta	90
_cell_angle_gamma	90
loop_
_atom_site_label
_atom_site_type_symbol
_atom_site_fract_x
_atom_site_fract_y
_atom_site_fract_z
_atom_site_charge
Mof_N 	N 	0.71501	0.88611	0.19211	-0.216
Mof_O 	O 	0.93272	0.97177	0.2312	-0.378
Mof_O 	O 	0.9304	0.97752	0.14499	-0.377
Mof_O 	O 	0.56522	0.01226	0.053	-0.445
Mof_O 	O 	0.52675	0.93855	0.05271	-0.416
Mof_N 	N 	0.9996	0.004	0.05007	-0.044
Mof_C 	C 	0.91174	0.96704	0.18832	0.381
Mof_C 	C 	0.85963	0.94688	0.18859	-0.16
Mof_C 	C 	0.83331	0.94042	0.14332	0.118
Mof_H 	H 	0.8477	0.9494	0.112	0.016
Mof_C 	C 	0.78556	0.92059	0.14412	-0.215
Mof_H 	H 	0.7683	0.9158	0.1133	0.122
Mof_C 	C 	0.76349	0.90782	0.19076	0.19
Mof_C 	C 	0.78949	0.9142	0.23589	-0.216
Mof_H 	H 	0.775	0.9054	0.2672	0.112
Mof_C 	C 	0.83749	0.93376	0.235	0.115
Mof_H 	H 	0.8549	0.9381	0.2658	0.01
Mof_C 	C 	0.67639	0.90625	0.16165	0.243
Mof_C 	C 	0.67354	0.95708	0.15298	-0.316
Mof_H 	H 	0.6968	0.9782	0.1682	0.156
Mof_C 	C 	0.63678	0.9769	0.12218	0.287
Mof_H 	H 	0.6361	0.011	0.1157	-0.088
Mof_C 	C 	0.60052	0.94611	0.10063	-0.25
Mof_C 	C 	0.60251	0.89599	0.10998	0.193
Mof_H 	H 	0.5782	0.8753	0.0959	-0.011
Mof_C 	C 	0.63996	0.87526	0.13991	-0.269
Mof_H 	H 	0.6409	0.841	0.1455	0.133
Mof_C 	C 	0.56076	0.96704	0.06565	0.478
Mof_C 	C 	0.70813	0.84162	0.22134	0.236
Mof_C 	C 	0.74425	0.80508	0.22124	-0.278
Mof_H 	H 	0.7731	0.8093	0.2017	0.136
Mof_N 	N 	0.9971	0.9964	0.3226	-0.23
Mof_C 	C 	0.9646	0.014	0.3619	-0.01
Mof_H 	H 	0.9315	0.0236	0.3574	0.028
Mof_N 	N 	0.9914	0.0143	0.4093	-0.219
Mof_C 	C 	0.0405	0.9969	0.3992	-0.08
Mof_H 	H 	0.0658	0.9934	0.4235	0.095
Mof_C 	C 	0.044	0.9858	0.3457	0.062
Mof_H 	H 	0.0721	0.9738	0.3287	0.007
Mof_C 	C 	0.9653	0.0065	0.455	0.005
Mof_C 	C 	0.9117	0.0139	0.455	-0.001
Mof_H 	H 	0.897	0.0171	0.4226	0.039
Mof_N 	N 	0.56248	0.11462	0.9962	0.027
Mof_N 	N 	0.6142	0.1983	0.9973	0.171
Mof_C 	C 	0.6144	0.1086	0.9822	2.567
Mof_H 	H 	0.6162	0.0963	0.947	-1.161
Mof_H 	H 	0.6293	0.0837	0.0046	-0.974
Mof_C 	C 	0.644	0.1554	0.9859	0.585
Mof_H 	H 	0.669	0.1515	0.0128	0.819
Mof_H 	H 	0.6613	0.1608	0.9535	0.096
Mof_C 	C 	0.5364	0.1559	0.0185	0.886
Mof_H 	H 	0.5331	0.1502	0.0554	-0.439
Mof_H 	H 	0.5031	0.1572	0.004	0.02
Mof_C 	C 	0.5613	0.205	0.01	-0.011
Mof_H 	H 	0.5448	0.2226	0.9821	-0.031
Mof_H 	H 	0.5584	0.2252	0.0411	-0.007
Mof_C 	C 	0.9897	0.0484	0.02909	-0.197
Mof_H 	H 	0.9451	0.0483	0.0407	-0.046
Mof_C 	C 	0.0267	0.0429	0.0294	0.127
Mof_H 	H 	0.9954	0.0743	0.0419	0.061
Mof_C 	C 	0.572	0.1296	0.0499	0.919
Mof_H 	H 	0.5922	0.106	0.0691	-0.619
Mof_H 	H 	0.544	0.1392	0.0691	-0.029
Mof_C 	C 	0.6052	0.1779	0.0482	-0.078
Mof_H 	H 	0.592	0.2029	0.0713	0.038
Mof_H 	H 	0.6392	0.17	0.0618	0.202
Mof_H 	H 	0.9965	0.0746	0.0407	0.06
Mof_N 	N 	0.28499	0.11389	0.19211	-0.198
Mof_O 	O 	0.06728	0.02823	0.2312	-0.432
Mof_O 	O 	0.0696	0.02248	0.14499	-0.427
Mof_O 	O 	0.43478	0.98774	0.053	-0.348
Mof_O 	O 	0.47325	0.06145	0.05271	-0.384
Mof_N 	N 	0.0004	0.996	0.05007	-0.028
Mof_C 	C 	0.08826	0.03296	0.18832	0.388
Mof_C 	C 	0.14037	0.05312	0.18859	-0.179
Mof_C 	C 	0.16669	0.05958	0.14332	0.12
Mof_H 	H 	0.1523	0.0506	0.112	0.005
Mof_C 	C 	0.21444	0.07941	0.14412	-0.221
Mof_H 	H 	0.2317	0.0842	0.1133	0.118
Mof_C 	C 	0.23651	0.09218	0.19076	0.187
Mof_C 	C 	0.21051	0.0858	0.23589	-0.224
Mof_H 	H 	0.225	0.0946	0.2672	0.106
Mof_C 	C 	0.16251	0.06624	0.235	0.117
Mof_H 	H 	0.1451	0.0619	0.2658	-0.004
Mof_C 	C 	0.32361	0.09375	0.16165	0.137
Mof_C 	C 	0.32646	0.04292	0.15298	-0.125
Mof_H 	H 	0.3032	0.0218	0.1682	0.07
Mof_C 	C 	0.36322	0.0231	0.12218	-0.03
Mof_H 	H 	0.3639	0.989	0.1157	0.079
Mof_C 	C 	0.39948	0.05389	0.10063	-0.083
Mof_C 	C 	0.39749	0.10401	0.10998	0.053
Mof_H 	H 	0.4218	0.1247	0.0959	0.035
Mof_C 	C 	0.36004	0.12474	0.13991	-0.156
Mof_H 	H 	0.3591	0.159	0.1455	0.093
Mof_C 	C 	0.43924	0.03296	0.06565	0.316
Mof_C 	C 	0.29187	0.15838	0.22134	0.229
Mof_C 	C 	0.25575	0.19492	0.22124	-0.273
Mof_H 	H 	0.2269	0.1907	0.2017	0.13
Mof_N 	N 	0.0029	0.0036	0.3226	0.196
Mof_C 	C 	0.0354	0.986	0.3619	-0.056
Mof_H 	H 	0.0685	0.9764	0.3574	0.02
Mof_N 	N 	0.0086	0.9857	0.4093	-0.037
Mof_C 	C 	0.9595	0.0031	0.3992	0.54
Mof_H 	H 	0.9342	0.0066	0.4235	-0.182
Mof_C 	C 	0.956	0.0142	0.3457	-0.229
Mof_H 	H 	0.9279	0.0262	0.3287	0.09
Mof_C 	C 	0.0347	0.9935	0.455	0.076
Mof_C 	C 	0.0883	0.9861	0.455	-0.195
Mof_H 	H 	0.103	0.9829	0.4226	0.079
Mof_N 	N 	0.43752	0.88538	0.9962	0.027
Mof_N 	N 	0.3858	0.8017	0.9973	0.172
Mof_C 	C 	0.3856	0.8914	0.9822	2.562
Mof_H 	H 	0.3838	0.9037	0.947	-1.157
Mof_H 	H 	0.3707	0.9163	0.0046	-0.97
Mof_C 	C 	0.356	0.8446	0.9859	0.586
Mof_H 	H 	0.331	0.8485	0.0128	0.821
Mof_H 	H 	0.3387	0.8392	0.9535	0.098
Mof_C 	C 	0.4636	0.8441	0.0185	0.881
Mof_H 	H 	0.4669	0.8498	0.0554	-0.433
Mof_H 	H 	0.4969	0.8428	0.004	0.022
Mof_C 	C 	0.4387	0.795	0.01	-0.008
Mof_H 	H 	0.4552	0.7774	0.9821	-0.032
Mof_H 	H 	0.4416	0.7748	0.0411	-0.007
Mof_C 	C 	0.0103	0.9516	0.02909	0.181
Mof_H 	H 	0.0549	0.9517	0.0407	0.113
Mof_C 	C 	0.9733	0.9571	0.0294	-0.066
Mof_H 	H 	0.0046	0.9257	0.0419	-0.018
Mof_C 	C 	0.428	0.8704	0.0499	0.929
Mof_H 	H 	0.4078	0.894	0.0691	-0.621
Mof_H 	H 	0.456	0.8608	0.0691	-0.033
Mof_C 	C 	0.3948	0.8221	0.0482	-0.084
Mof_H 	H 	0.408	0.7971	0.0713	0.042
Mof_H 	H 	0.3608	0.83	0.0618	0.205
Mof_H 	H 	0.0035	0.9254	0.0407	-0.02
Mof_N 	N 	0.11389	0.71501	0.19211	-0.198
Mof_O 	O 	0.02823	0.93272	0.2312	-0.408
Mof_O 	O 	0.02248	0.9304	0.14499	-0.405
Mof_O 	O 	0.98774	0.56522	0.053	-0.348
Mof_O 	O 	0.06145	0.52675	0.05271	-0.384
Mof_N 	N 	0.996	0.9996	0.05007	-0.213
Mof_C 	C 	0.03296	0.91174	0.18832	0.387
Mof_C 	C 	0.05312	0.85963	0.18859	-0.172
Mof_C 	C 	0.05958	0.83331	0.14332	0.119
Mof_H 	H 	0.0506	0.8477	0.112	0.008
Mof_C 	C 	0.07941	0.78556	0.14412	-0.217
Mof_H 	H 	0.0842	0.7683	0.1133	0.119
Mof_C 	C 	0.09218	0.76349	0.19076	0.186
Mof_C 	C 	0.0858	0.78949	0.23589	-0.221
Mof_H 	H 	0.0946	0.775	0.2672	0.106
Mof_C 	C 	0.06624	0.83749	0.235	0.116
Mof_H 	H 	0.0619	0.8549	0.2658	-0.001
Mof_C 	C 	0.09375	0.67639	0.16165	0.138
Mof_C 	C 	0.04292	0.67354	0.15298	-0.127
Mof_H 	H 	0.0218	0.6968	0.1682	0.07
Mof_C 	C 	0.0231	0.63678	0.12218	-0.028
Mof_H 	H 	0.989	0.6361	0.1157	0.077
Mof_C 	C 	0.05389	0.60052	0.10063	-0.084
Mof_C 	C 	0.10401	0.60251	0.10998	0.054
Mof_H 	H 	0.1247	0.5782	0.0959	0.035
Mof_C 	C 	0.12474	0.63996	0.13991	-0.157
Mof_H 	H 	0.159	0.6409	0.1455	0.094
Mof_C 	C 	0.03296	0.56076	0.06565	0.316
Mof_C 	C 	0.15838	0.70813	0.22134	0.23
Mof_C 	C 	0.19492	0.74425	0.22124	-0.273
Mof_H 	H 	0.1907	0.7731	0.2017	0.134
Mof_N 	N 	0.0036	0.9971	0.3226	0.034
Mof_C 	C 	0.986	0.9646	0.3619	0.025
Mof_H 	H 	0.9764	0.9315	0.3574	-0.003
Mof_N 	N 	0.9857	0.9914	0.4093	-0.302
Mof_C 	C 	0.0031	0.0405	0.3992	0.259
Mof_H 	H 	0.0066	0.0658	0.4235	-0.04
Mof_C 	C 	0.0142	0.044	0.3457	-0.118
Mof_H 	H 	0.0262	0.0721	0.3287	0.03
Mof_C 	C 	0.9935	0.9653	0.455	0.103
Mof_C 	C 	0.9861	0.9117	0.455	-0.109
Mof_H 	H 	0.9829	0.897	0.4226	0.075
Mof_N 	N 	0.88538	0.56248	0.9962	0.027
Mof_N 	N 	0.8017	0.6142	0.9973	0.172
Mof_C 	C 	0.8914	0.6144	0.9822	2.562
Mof_H 	H 	0.9037	0.6162	0.947	-1.157
Mof_H 	H 	0.9163	0.6293	0.0046	-0.97
Mof_C 	C 	0.8446	0.644	0.9859	0.586
Mof_H 	H 	0.8485	0.669	0.0128	0.821
Mof_H 	H 	0.8392	0.6613	0.9535	0.098
Mof_C 	C 	0.8441	0.5364	0.0185	0.881
Mof_H 	H 	0.8498	0.5331	0.0554	-0.433
Mof_H 	H 	0.8428	0.5031	0.004	0.022
Mof_C 	C 	0.795	0.5613	0.01	-0.008
Mof_H 	H 	0.7774	0.5448	0.9821	-0.032
Mof_H 	H 	0.7748	0.5584	0.0411	-0.007
Mof_C 	C 	0.9516	0.9897	0.02909	-0.024
Mof_H 	H 	0.9517	0.9451	0.0407	0.103
Mof_C 	C 	0.9571	0.0267	0.0294	0.228
Mof_H 	H 	0.9257	0.9954	0.0419	0.016
Mof_C 	C 	0.8704	0.572	0.0499	0.929
Mof_H 	H 	0.894	0.5922	0.0691	-0.621
Mof_H 	H 	0.8608	0.544	0.0691	-0.034
Mof_C 	C 	0.8221	0.6052	0.0482	-0.084
Mof_H 	H 	0.7971	0.592	0.0713	0.042
Mof_H 	H 	0.83	0.6392	0.0618	0.205
Mof_H 	H 	0.9254	0.9965	0.0407	0.019
Mof_N 	N 	0.88611	0.28499	0.19211	-0.215
Mof_O 	O 	0.97177	0.06728	0.2312	-0.399
Mof_O 	O 	0.97752	0.0696	0.14499	-0.396
Mof_O 	O 	0.01226	0.43478	0.053	-0.445
Mof_O 	O 	0.93855	0.47325	0.05271	-0.415
Mof_N 	N 	0.004	0.0004	0.05007	0.15
Mof_C 	C 	0.96704	0.08826	0.18832	0.384
Mof_C 	C 	0.94688	0.14037	0.18859	-0.165
Mof_C 	C 	0.94042	0.16669	0.14332	0.12
Mof_H 	H 	0.9494	0.1523	0.112	0.014
Mof_C 	C 	0.92059	0.21444	0.14412	-0.217
Mof_H 	H 	0.9158	0.2317	0.1133	0.122
Mof_C 	C 	0.90782	0.23651	0.19076	0.191
Mof_C 	C 	0.9142	0.21051	0.23589	-0.219
Mof_H 	H 	0.9054	0.225	0.2672	0.112
Mof_C 	C 	0.93376	0.16251	0.235	0.116
Mof_H 	H 	0.9381	0.1451	0.2658	0.007
Mof_C 	C 	0.90625	0.32361	0.16165	0.243
Mof_C 	C 	0.95708	0.32646	0.15298	-0.318
Mof_H 	H 	0.9782	0.3032	0.1682	0.157
Mof_C 	C 	0.9769	0.36322	0.12218	0.29
Mof_H 	H 	0.011	0.3639	0.1157	-0.089
Mof_C 	C 	0.94611	0.39948	0.10063	-0.251
Mof_C 	C 	0.89599	0.39749	0.10998	0.194
Mof_H 	H 	0.8753	0.4218	0.0959	-0.011
Mof_C 	C 	0.87526	0.36004	0.13991	-0.27
Mof_H 	H 	0.841	0.3591	0.1455	0.133
Mof_C 	C 	0.96704	0.43924	0.06565	0.479
Mof_C 	C 	0.84162	0.29187	0.22134	0.235
Mof_C 	C 	0.80508	0.25575	0.22124	-0.279
Mof_H 	H 	0.8093	0.2269	0.2017	0.131
Mof_N 	N 	0.9964	0.0029	0.3226	-0.075
Mof_C 	C 	0.014	0.0354	0.3619	-0.104
Mof_H 	H 	0.0236	0.0685	0.3574	0.063
Mof_N 	N 	0.0143	0.0086	0.4093	0.031
Mof_C 	C 	0.9969	0.9595	0.3992	0.263
Mof_H 	H 	0.9934	0.9342	0.4235	-0.062
Mof_C 	C 	0.9858	0.956	0.3457	-0.085
Mof_H 	H 	0.9738	0.9279	0.3287	0.074
Mof_C 	C 	0.0065	0.0347	0.455	-0.129
Mof_C 	C 	0.0139	0.0883	0.455	-0.027
Mof_H 	H 	0.0171	0.103	0.4226	0.022
Mof_N 	N 	0.11462	0.43752	0.9962	0.027
Mof_N 	N 	0.1983	0.3858	0.9973	0.171
Mof_C 	C 	0.1086	0.3856	0.9822	2.567
Mof_H 	H 	0.0963	0.3838	0.947	-1.161
Mof_H 	H 	0.0837	0.3707	0.0046	-0.974
Mof_C 	C 	0.1554	0.356	0.9859	0.585
Mof_H 	H 	0.1515	0.331	0.0128	0.818
Mof_H 	H 	0.1608	0.3387	0.9535	0.096
Mof_C 	C 	0.1559	0.4636	0.0185	0.886
Mof_H 	H 	0.1502	0.4669	0.0554	-0.439
Mof_H 	H 	0.1572	0.4969	0.004	0.02
Mof_C 	C 	0.205	0.4387	0.01	-0.011
Mof_H 	H 	0.2226	0.4552	0.9821	-0.03
Mof_H 	H 	0.2252	0.4416	0.0411	-0.007
Mof_C 	C 	0.0484	0.0103	0.02909	0.001
Mof_H 	H 	0.0483	0.0549	0.0407	-0.03
Mof_C 	C 	0.0429	0.9733	0.0294	-0.157
Mof_H 	H 	0.0743	0.0046	0.0419	0.028
Mof_C 	C 	0.1296	0.428	0.0499	0.919
Mof_H 	H 	0.106	0.4078	0.0691	-0.619
Mof_H 	H 	0.1392	0.456	0.0691	-0.029
Mof_C 	C 	0.1779	0.3948	0.0482	-0.078
Mof_H 	H 	0.2029	0.408	0.0713	0.038
Mof_H 	H 	0.17	0.3608	0.0618	0.202
Mof_H 	H 	0.0746	0.0035	0.0407	0.021
Mof_N 	N 	0.78499	0.38611	0.30789	-0.206
Mof_O 	O 	0.56728	0.47177	0.2688	-0.412
Mof_O 	O 	0.5696	0.47752	0.35501	-0.412
Mof_O 	O 	0.93478	0.51226	0.447	-0.405
Mof_O 	O 	0.97325	0.43855	0.44729	-0.395
Mof_N 	N 	0.5004	0.504	0.44993	-0.028
Mof_C 	C 	0.58826	0.46704	0.31168	0.388
Mof_C 	C 	0.64037	0.44688	0.31141	-0.172
Mof_C 	C 	0.66669	0.44042	0.35668	0.119
Mof_H 	H 	0.6523	0.4494	0.388	0.001
Mof_C 	C 	0.71444	0.42059	0.35588	-0.219
Mof_H 	H 	0.7317	0.4158	0.3867	0.109
Mof_C 	C 	0.73651	0.40782	0.30924	0.187
Mof_C 	C 	0.71051	0.4142	0.26411	-0.22
Mof_H 	H 	0.725	0.4054	0.2328	0.112
Mof_C 	C 	0.66251	0.43376	0.265	0.117
Mof_H 	H 	0.6451	0.4381	0.2342	0.004
Mof_C 	C 	0.82361	0.40625	0.33835	0.185
Mof_C 	C 	0.82646	0.45708	0.34702	-0.216
Mof_H 	H 	0.8032	0.4782	0.3318	0.111
Mof_C 	C 	0.86322	0.4769	0.37782	0.118
Mof_H 	H 	0.8639	0.511	0.3843	0.003
Mof_C 	C 	0.89948	0.44611	0.39937	-0.165
Mof_C 	C 	0.89749	0.39599	0.39002	0.117
Mof_H 	H 	0.9218	0.3753	0.4041	0.009
Mof_C 	C 	0.86004	0.37526	0.36009	-0.212
Mof_H 	H 	0.8591	0.341	0.3545	0.109
Mof_C 	C 	0.93924	0.46704	0.43435	0.39
Mof_C 	C 	0.79187	0.34162	0.27866	0.233
Mof_C 	C 	0.75575	0.30508	0.27876	-0.278
Mof_H 	H 	0.7269	0.3093	0.2983	0.13
Mof_N 	N 	0.5029	0.4964	0.1774	-0.021
Mof_C 	C 	0.5354	0.514	0.1381	-0.039
Mof_H 	H 	0.5685	0.5236	0.1426	0.027
Mof_N 	N 	0.5086	0.5143	0.0907	-0.127
Mof_C 	C 	0.4595	0.4969	0.1008	0.234
Mof_H 	H 	0.4342	0.4934	0.0765	-0.032
Mof_C 	C 	0.456	0.4858	0.1543	-0.083
Mof_H 	H 	0.4279	0.4738	0.1713	0.048
Mof_C 	C 	0.5347	0.5065	0.045	0.01
Mof_C 	C 	0.5883	0.5139	0.045	-0.109
Mof_H 	H 	0.603	0.5171	0.0774	0.064
Mof_N 	N 	0.93752	0.61462	0.5038	-0.068
Mof_N 	N 	0.8858	0.6983	0.5027	-0.035
Mof_C 	C 	0.8856	0.6086	0.5178	-0.072
Mof_H 	H 	0.8838	0.5963	0.553	0.05
Mof_H 	H 	0.8707	0.5837	0.4954	0.035
Mof_C 	C 	0.856	0.6554	0.5141	-0.004
Mof_H 	H 	0.831	0.6515	0.4872	0.022
Mof_H 	H 	0.8387	0.6608	0.5465	-0.011
Mof_C 	C 	0.9636	0.6559	0.4815	-0.074
Mof_H 	H 	0.9669	0.6502	0.4446	0.112
Mof_H 	H 	0.9969	0.6572	0.496	0.035
Mof_C 	C 	0.9387	0.705	0.49	-0.012
Mof_H 	H 	0.9552	0.7226	0.5179	0.025
Mof_H 	H 	0.9416	0.7252	0.4589	0.016
Mof_C 	C 	0.5103	0.5484	0.47091	-0.051
Mof_H 	H 	0.5549	0.5483	0.4593	0.04
Mof_C 	C 	0.4733	0.5429	0.4706	-0.003
Mof_H 	H 	0.5046	0.5743	0.4581	0.023
Mof_C 	C 	0.928	0.6296	0.4501	0.078
Mof_H 	H 	0.9078	0.606	0.4309	-0.005
Mof_H 	H 	0.956	0.6392	0.4309	-0.072
Mof_C 	C 	0.8948	0.6779	0.4518	-0.1
Mof_H 	H 	0.908	0.7029	0.4287	0.06
Mof_H 	H 	0.8608	0.67	0.4382	0.066
Mof_H 	H 	0.5035	0.5746	0.4593	0.023
Mof_N 	N 	0.21501	0.61389	0.30789	-0.207
Mof_O 	O 	0.43272	0.52823	0.2688	-0.412
Mof_O 	O 	0.4304	0.52248	0.35501	-0.412
Mof_O 	O 	0.06522	0.48774	0.447	-0.423
Mof_O 	O 	0.02675	0.56145	0.44729	-0.441
Mof_N 	N 	0.4996	0.496	0.44993	-0.028
Mof_C 	C 	0.41174	0.53296	0.31168	0.388
Mof_C 	C 	0.35963	0.55312	0.31141	-0.172
Mof_C 	C 	0.33331	0.55958	0.35668	0.118
Mof_H 	H 	0.3477	0.5506	0.388	0.001
Mof_C 	C 	0.28556	0.57941	0.35588	-0.219
Mof_H 	H 	0.2683	0.5842	0.3867	0.109
Mof_C 	C 	0.26349	0.59218	0.30924	0.187
Mof_C 	C 	0.28949	0.5858	0.26411	-0.221
Mof_H 	H 	0.275	0.5946	0.2328	0.112
Mof_C 	C 	0.33749	0.56624	0.265	0.117
Mof_H 	H 	0.3549	0.5619	0.2342	0.004
Mof_C 	C 	0.17639	0.59375	0.33835	0.189
Mof_C 	C 	0.17354	0.54292	0.34702	-0.226
Mof_H 	H 	0.1968	0.5218	0.3318	0.112
Mof_C 	C 	0.13678	0.5231	0.37782	0.126
Mof_H 	H 	0.1361	0.489	0.3843	-0.004
Mof_C 	C 	0.10052	0.55389	0.39937	-0.183
Mof_C 	C 	0.10251	0.60401	0.39002	0.126
Mof_H 	H 	0.0782	0.6247	0.4041	-0.008
Mof_C 	C 	0.13996	0.62474	0.36009	-0.224
Mof_H 	H 	0.1409	0.659	0.3545	0.108
Mof_C 	C 	0.06076	0.53296	0.43435	0.398
Mof_C 	C 	0.20813	0.65838	0.27866	0.23
Mof_C 	C 	0.24425	0.69492	0.27876	-0.274
Mof_H 	H 	0.2731	0.6907	0.2983	0.13
Mof_N 	N 	0.4971	0.5036	0.1774	-0.021
Mof_C 	C 	0.4646	0.486	0.1381	-0.039
Mof_H 	H 	0.4315	0.4764	0.1426	0.027
Mof_N 	N 	0.4914	0.4857	0.0907	-0.127
Mof_C 	C 	0.5405	0.5031	0.1008	0.234
Mof_H 	H 	0.5658	0.5066	0.0765	-0.032
Mof_C 	C 	0.544	0.5142	0.1543	-0.083
Mof_H 	H 	0.5721	0.5262	0.1713	0.048
Mof_C 	C 	0.4653	0.4935	0.045	0.01
Mof_C 	C 	0.4117	0.4861	0.045	-0.108
Mof_H 	H 	0.397	0.4829	0.0774	0.063
Mof_N 	N 	0.06248	0.38538	0.5038	-0.07
Mof_N 	N 	0.1142	0.3017	0.5027	-0.037
Mof_C 	C 	0.1144	0.3914	0.5178	-0.064
Mof_H 	H 	0.1162	0.4037	0.553	0.046
Mof_H 	H 	0.1293	0.4163	0.4954	0.033
Mof_C 	C 	0.144	0.3446	0.5141	-0.011
Mof_H 	H 	0.169	0.3485	0.4872	0.024
Mof_H 	H 	0.1613	0.3392	0.5465	-0.008
Mof_C 	C 	0.0364	0.3441	0.4815	-0.064
Mof_H 	H 	0.0331	0.3498	0.4446	0.087
Mof_H 	H 	0.0031	0.3428	0.496	0.021
Mof_C 	C 	0.0613	0.295	0.49	-0.012
Mof_H 	H 	0.0448	0.2774	0.5179	0.018
Mof_H 	H 	0.0584	0.2748	0.4589	0.009
Mof_C 	C 	0.4897	0.4516	0.47091	-0.051
Mof_H 	H 	0.4451	0.4517	0.4593	0.04
Mof_C 	C 	0.5267	0.4571	0.4706	-0.003
Mof_H 	H 	0.4954	0.4257	0.4581	0.023
Mof_C 	C 	0.072	0.3704	0.4501	0.057
Mof_H 	H 	0.0922	0.394	0.4309	-0.004
Mof_H 	H 	0.044	0.3608	0.4309	-0.063
Mof_C 	C 	0.1052	0.3221	0.4518	-0.084
Mof_H 	H 	0.092	0.2971	0.4287	0.048
Mof_H 	H 	0.1392	0.33	0.4382	0.058
Mof_H 	H 	0.4965	0.4254	0.4593	0.023
Mof_N 	N 	0.38611	0.21501	0.30789	-0.207
Mof_O 	O 	0.47177	0.43272	0.2688	-0.412
Mof_O 	O 	0.47752	0.4304	0.35501	-0.412
Mof_O 	O 	0.51226	0.06522	0.447	-0.423
Mof_O 	O 	0.43855	0.02675	0.44729	-0.441
Mof_N 	N 	0.504	0.4996	0.44993	-0.028
Mof_C 	C 	0.46704	0.41174	0.31168	0.388
Mof_C 	C 	0.44688	0.35963	0.31141	-0.172
Mof_C 	C 	0.44042	0.33331	0.35668	0.118
Mof_H 	H 	0.4494	0.3477	0.388	0.001
Mof_C 	C 	0.42059	0.28556	0.35588	-0.219
Mof_H 	H 	0.4158	0.2683	0.3867	0.109
Mof_C 	C 	0.40782	0.26349	0.30924	0.187
Mof_C 	C 	0.4142	0.28949	0.26411	-0.221
Mof_H 	H 	0.4054	0.275	0.2328	0.112
Mof_C 	C 	0.43376	0.33749	0.265	0.117
Mof_H 	H 	0.4381	0.3549	0.2342	0.004
Mof_C 	C 	0.40625	0.17639	0.33835	0.189
Mof_C 	C 	0.45708	0.17354	0.34702	-0.226
Mof_H 	H 	0.4782	0.1968	0.3318	0.112
Mof_C 	C 	0.4769	0.13678	0.37782	0.126
Mof_H 	H 	0.511	0.1361	0.3843	-0.003
Mof_C 	C 	0.44611	0.10052	0.39937	-0.183
Mof_C 	C 	0.39599	0.10251	0.39002	0.126
Mof_H 	H 	0.3753	0.0782	0.4041	-0.008
Mof_C 	C 	0.37526	0.13996	0.36009	-0.224
Mof_H 	H 	0.341	0.1409	0.3545	0.107
Mof_C 	C 	0.46704	0.06076	0.43435	0.398
Mof_C 	C 	0.34162	0.20813	0.27866	0.229
Mof_C 	C 	0.30508	0.24425	0.27876	-0.275
Mof_H 	H 	0.3093	0.2731	0.2983	0.129
Mof_N 	N 	0.4964	0.4971	0.1774	-0.021
Mof_C 	C 	0.514	0.4646	0.1381	-0.039
Mof_H 	H 	0.5236	0.4315	0.1426	0.027
Mof_N 	N 	0.5143	0.4914	0.0907	-0.127
Mof_C 	C 	0.4969	0.5405	0.1008	0.234
Mof_H 	H 	0.4934	0.5658	0.0765	-0.032
Mof_C 	C 	0.4858	0.544	0.1543	-0.083
Mof_H 	H 	0.4738	0.5721	0.1713	0.048
Mof_C 	C 	0.5065	0.4653	0.045	0.01
Mof_C 	C 	0.5139	0.4117	0.045	-0.108
Mof_H 	H 	0.5171	0.397	0.0774	0.063
Mof_N 	N 	0.61462	0.06248	0.5038	-0.07
Mof_N 	N 	0.6983	0.1142	0.5027	-0.037
Mof_C 	C 	0.6086	0.1144	0.5178	-0.064
Mof_H 	H 	0.5963	0.1162	0.553	0.046
Mof_H 	H 	0.5837	0.1293	0.4954	0.033
Mof_C 	C 	0.6554	0.144	0.5141	-0.011
Mof_H 	H 	0.6515	0.169	0.4872	0.024
Mof_H 	H 	0.6608	0.1613	0.5465	-0.007
Mof_C 	C 	0.6559	0.0364	0.4815	-0.064
Mof_H 	H 	0.6502	0.0331	0.4446	0.087
Mof_H 	H 	0.6572	0.0031	0.496	0.021
Mof_C 	C 	0.705	0.0613	0.49	-0.012
Mof_H 	H 	0.7226	0.0448	0.5179	0.018
Mof_H 	H 	0.7252	0.0584	0.4589	0.009
Mof_C 	C 	0.5484	0.4897	0.47091	-0.051
Mof_H 	H 	0.5483	0.4451	0.4593	0.04
Mof_C 	C 	0.5429	0.5267	0.4706	-0.003
Mof_H 	H 	0.5743	0.4954	0.4581	0.023
Mof_C 	C 	0.6296	0.072	0.4501	0.057
Mof_H 	H 	0.606	0.0922	0.4309	-0.004
Mof_H 	H 	0.6392	0.044	0.4309	-0.063
Mof_C 	C 	0.6779	0.1052	0.4518	-0.084
Mof_H 	H 	0.7029	0.092	0.4287	0.048
Mof_H 	H 	0.67	0.1392	0.4382	0.058
Mof_H 	H 	0.5746	0.4965	0.4593	0.023
Mof_N 	N 	0.61389	0.78499	0.30789	-0.206
Mof_O 	O 	0.52823	0.56728	0.2688	-0.412
Mof_O 	O 	0.52248	0.5696	0.35501	-0.412
Mof_O 	O 	0.48774	0.93478	0.447	-0.405
Mof_O 	O 	0.56145	0.97325	0.44729	-0.396
Mof_N 	N 	0.496	0.5004	0.44993	-0.028
Mof_C 	C 	0.53296	0.58826	0.31168	0.388
Mof_C 	C 	0.55312	0.64037	0.31141	-0.172
Mof_C 	C 	0.55958	0.66669	0.35668	0.119
Mof_H 	H 	0.5506	0.6523	0.388	0.001
Mof_C 	C 	0.57941	0.71444	0.35588	-0.219
Mof_H 	H 	0.5842	0.7317	0.3867	0.11
Mof_C 	C 	0.59218	0.73651	0.30924	0.187
Mof_C 	C 	0.5858	0.71051	0.26411	-0.22
Mof_H 	H 	0.5946	0.725	0.2328	0.112
Mof_C 	C 	0.56624	0.66251	0.265	0.117
Mof_H 	H 	0.5619	0.6451	0.2342	0.004
Mof_C 	C 	0.59375	0.82361	0.33835	0.186
Mof_C 	C 	0.54292	0.82646	0.34702	-0.217
Mof_H 	H 	0.5218	0.8032	0.3318	0.111
Mof_C 	C 	0.5231	0.86322	0.37782	0.119
Mof_H 	H 	0.489	0.8639	0.3843	0.003
Mof_C 	C 	0.55389	0.89948	0.39937	-0.166
Mof_C 	C 	0.60401	0.89749	0.39002	0.117
Mof_H 	H 	0.6247	0.9218	0.4041	0.009
Mof_C 	C 	0.62474	0.86004	0.36009	-0.212
Mof_H 	H 	0.659	0.8591	0.3545	0.109
Mof_C 	C 	0.53296	0.93924	0.43435	0.39
Mof_C 	C 	0.65838	0.79187	0.27866	0.234
Mof_C 	C 	0.69492	0.75575	0.27876	-0.278
Mof_H 	H 	0.6907	0.7269	0.2983	0.131
Mof_N 	N 	0.5036	0.5029	0.1774	-0.021
Mof_C 	C 	0.486	0.5354	0.1381	-0.039
Mof_H 	H 	0.4764	0.5685	0.1426	0.027
Mof_N 	N 	0.4857	0.5086	0.0907	-0.127
Mof_C 	C 	0.5031	0.4595	0.1008	0.234
Mof_H 	H 	0.5066	0.4342	0.0765	-0.033
Mof_C 	C 	0.5142	0.456	0.1543	-0.083
Mof_H 	H 	0.5262	0.4279	0.1713	0.048
Mof_C 	C 	0.4935	0.5347	0.045	0.01
Mof_C 	C 	0.4861	0.5883	0.045	-0.109
Mof_H 	H 	0.4829	0.603	0.0774	0.064
Mof_N 	N 	0.38538	0.93752	0.5038	-0.068
Mof_N 	N 	0.3017	0.8858	0.5027	-0.036
Mof_C 	C 	0.3914	0.8856	0.5178	-0.072
Mof_H 	H 	0.4037	0.8838	0.553	0.05
Mof_H 	H 	0.4163	0.8707	0.4954	0.035
Mof_C 	C 	0.3446	0.856	0.5141	-0.004
Mof_H 	H 	0.3485	0.831	0.4872	0.022
Mof_H 	H 	0.3392	0.8387	0.5465	-0.011
Mof_C 	C 	0.3441	0.9636	0.4815	-0.074
Mof_H 	H 	0.3498	0.9669	0.4446	0.112
Mof_H 	H 	0.3428	0.9969	0.496	0.035
Mof_C 	C 	0.295	0.9387	0.49	-0.012
Mof_H 	H 	0.2774	0.9552	0.5179	0.025
Mof_H 	H 	0.2748	0.9416	0.4589	0.015
Mof_C 	C 	0.4516	0.5103	0.47091	-0.051
Mof_H 	H 	0.4517	0.5549	0.4593	0.04
Mof_C 	C 	0.4571	0.4733	0.4706	-0.003
Mof_H 	H 	0.4257	0.5046	0.4581	0.023
Mof_C 	C 	0.3704	0.928	0.4501	0.078
Mof_H 	H 	0.394	0.9078	0.4309	-0.005
Mof_H 	H 	0.3608	0.956	0.4309	-0.072
Mof_C 	C 	0.3221	0.8948	0.4518	-0.1
Mof_H 	H 	0.2971	0.908	0.4287	0.06
Mof_H 	H 	0.33	0.8608	0.4382	0.066
Mof_H 	H 	0.4254	0.5035	0.4593	0.023
Mof_N 	N 	0.28499	0.11389	0.80789	-0.198
Mof_O 	O 	0.06728	0.02823	0.7688	-0.433
Mof_O 	O 	0.0696	0.02248	0.85501	-0.433
Mof_O 	O 	0.43478	0.98774	0.947	-0.402
Mof_O 	O 	0.47325	0.06145	0.94729	-0.44
Mof_N 	N 	0.0004	0.996	0.94993	-0.016
Mof_C 	C 	0.08826	0.03296	0.81168	0.387
Mof_C 	C 	0.14037	0.05312	0.81141	-0.183
Mof_C 	C 	0.16669	0.05958	0.85668	0.115
Mof_H 	H 	0.1523	0.0506	0.888	-0.014
Mof_C 	C 	0.21444	0.07941	0.85588	-0.223
Mof_H 	H 	0.2317	0.0842	0.8867	0.095
Mof_C 	C 	0.23651	0.09218	0.80924	0.181
Mof_C 	C 	0.21051	0.0858	0.76411	-0.223
Mof_H 	H 	0.225	0.0946	0.7328	0.106
Mof_C 	C 	0.16251	0.06624	0.765	0.115
Mof_H 	H 	0.1451	0.0619	0.7342	-0.004
Mof_C 	C 	0.32361	0.09375	0.83835	0.132
Mof_C 	C 	0.32646	0.04292	0.84702	-0.126
Mof_H 	H 	0.3032	0.0218	0.8318	0.066
Mof_C 	C 	0.36322	0.0231	0.87782	-0.043
Mof_H 	H 	0.3639	0.989	0.8843	0.088
Mof_C 	C 	0.39948	0.05389	0.89937	-0.101
Mof_C 	C 	0.39749	0.10401	0.89002	0.051
Mof_H 	H 	0.4218	0.1247	0.9041	0.011
Mof_C 	C 	0.36004	0.12474	0.86009	-0.168
Mof_H 	H 	0.3591	0.159	0.8545	0.083
Mof_C 	C 	0.43924	0.03296	0.93435	0.315
Mof_C 	C 	0.29187	0.15838	0.77866	0.224
Mof_C 	C 	0.25575	0.19492	0.77876	-0.273
Mof_H 	H 	0.2269	0.1907	0.7983	0.122
Mof_N 	N 	0.0029	0.0036	0.6774	0.196
Mof_C 	C 	0.0354	0.986	0.6381	-0.055
Mof_H 	H 	0.0685	0.9764	0.6426	0.02
Mof_N 	N 	0.0086	0.9857	0.5907	-0.037
Mof_C 	C 	0.9595	0.0031	0.6008	0.54
Mof_H 	H 	0.9342	0.0066	0.5765	-0.181
Mof_C 	C 	0.956	0.0142	0.6543	-0.229
Mof_H 	H 	0.9279	0.0262	0.6713	0.09
Mof_C 	C 	0.0347	0.9935	0.545	0.076
Mof_C 	C 	0.0883	0.9861	0.545	-0.195
Mof_H 	H 	0.103	0.9829	0.5774	0.079
Mof_N 	N 	0.43752	0.88538	0.0038	-0.168
Mof_N 	N 	0.3858	0.8017	0.0027	-0.245
Mof_C 	C 	0.3856	0.8914	0.0178	-2.701
Mof_H 	H 	0.3838	0.9037	0.053	1.257
Mof_H 	H 	0.3707	0.9163	0.9954	1.041
Mof_C 	C 	0.356	0.8446	0.0141	-0.599
Mof_H 	H 	0.331	0.8485	0.9872	-0.773
Mof_H 	H 	0.3387	0.8392	0.0465	-0.114
Mof_C 	C 	0.4636	0.8441	0.9815	-1.023
Mof_H 	H 	0.4669	0.8498	0.9446	0.636
Mof_H 	H 	0.4969	0.8428	0.996	0.036
Mof_C 	C 	0.4387	0.795	0.99	-0.01
Mof_H 	H 	0.4552	0.7774	0.0179	0.069
Mof_H 	H 	0.4416	0.7748	0.9589	0.028
Mof_C 	C 	0.0103	0.9516	0.97091	0.098
Mof_H 	H 	0.0549	0.9517	0.9593	0.124
Mof_C 	C 	0.9733	0.9571	0.9706	-0.138
Mof_H 	H 	0.0046	0.9257	0.9581	-0.015
Mof_C 	C 	0.428	0.8704	0.9501	-0.788
Mof_H 	H 	0.4078	0.894	0.9309	0.61
Mof_H 	H 	0.456	0.8608	0.9309	-0.103
Mof_C 	C 	0.3948	0.8221	0.9518	-0.103
Mof_H 	H 	0.408	0.7971	0.9287	0.067
Mof_H 	H 	0.3608	0.83	0.9382	-0.079
Mof_H 	H 	0.0035	0.9254	0.9593	-0.014
Mof_N 	N 	0.71501	0.88611	0.80789	-0.215
Mof_O 	O 	0.93272	0.97177	0.7688	-0.377
Mof_O 	O 	0.9304	0.97752	0.85501	-0.383
Mof_O 	O 	0.56522	0.01226	0.947	-0.498
Mof_O 	O 	0.52675	0.93855	0.94729	-0.471
Mof_N 	N 	0.9996	0.004	0.94993	-0.03
Mof_C 	C 	0.91174	0.96704	0.81168	0.381
Mof_C 	C 	0.85963	0.94688	0.81141	-0.163
Mof_C 	C 	0.83331	0.94042	0.85668	0.114
Mof_H 	H 	0.8477	0.9494	0.888	-0.003
Mof_C 	C 	0.78556	0.92059	0.85588	-0.216
Mof_H 	H 	0.7683	0.9158	0.8867	0.1
Mof_C 	C 	0.76349	0.90782	0.80924	0.185
Mof_C 	C 	0.78949	0.9142	0.76411	-0.215
Mof_H 	H 	0.775	0.9054	0.7328	0.111
Mof_C 	C 	0.83749	0.93376	0.765	0.113
Mof_H 	H 	0.8549	0.9381	0.7342	0.01
Mof_C 	C 	0.67639	0.90625	0.83835	0.237
Mof_C 	C 	0.67354	0.95708	0.84702	-0.317
Mof_H 	H 	0.6968	0.9782	0.8318	0.153
Mof_C 	C 	0.63678	0.9769	0.87782	0.274
Mof_H 	H 	0.6361	0.011	0.8843	-0.079
Mof_C 	C 	0.60052	0.94611	0.89937	-0.268
Mof_C 	C 	0.60251	0.89599	0.89002	0.191
Mof_H 	H 	0.5782	0.8753	0.9041	-0.035
Mof_C 	C 	0.63996	0.87526	0.86009	-0.281
Mof_H 	H 	0.6409	0.841	0.8545	0.123
Mof_C 	C 	0.56076	0.96704	0.93435	0.478
Mof_C 	C 	0.70813	0.84162	0.77866	0.231
Mof_C 	C 	0.74425	0.80508	0.77876	-0.278
Mof_H 	H 	0.7731	0.8093	0.7983	0.128
Mof_N 	N 	0.9971	0.9964	0.6774	-0.23
Mof_C 	C 	0.9646	0.014	0.6381	-0.01
Mof_H 	H 	0.9315	0.0236	0.6426	0.028
Mof_N 	N 	0.9914	0.0143	0.5907	-0.219
Mof_C 	C 	0.0405	0.9969	0.6008	-0.08
Mof_H 	H 	0.0658	0.9934	0.5765	0.095
Mof_C 	C 	0.044	0.9858	0.6543	0.062
Mof_H 	H 	0.0721	0.9738	0.6713	0.007
Mof_C 	C 	0.9653	0.0065	0.545	0.005
Mof_C 	C 	0.9117	0.0139	0.545	-0.001
Mof_H 	H 	0.897	0.0171	0.5774	0.039
Mof_N 	N 	0.56248	0.11462	0.0038	-0.167
Mof_N 	N 	0.6142	0.1983	0.0027	-0.246
Mof_C 	C 	0.6144	0.1086	0.0178	-2.697
Mof_H 	H 	0.6162	0.0963	0.053	1.252
Mof_H 	H 	0.6293	0.0837	0.9954	1.037
Mof_C 	C 	0.644	0.1554	0.0141	-0.6
Mof_H 	H 	0.669	0.1515	0.9872	-0.775
Mof_H 	H 	0.6613	0.1608	0.0465	-0.116
Mof_C 	C 	0.5364	0.1559	0.9815	-1.019
Mof_H 	H 	0.5331	0.1502	0.9446	0.629
Mof_H 	H 	0.5031	0.1572	0.996	0.033
Mof_C 	C 	0.5613	0.205	0.99	-0.012
Mof_H 	H 	0.5448	0.2226	0.0179	0.07
Mof_H 	H 	0.5584	0.2252	0.9589	0.027
Mof_C 	C 	0.9897	0.0484	0.97091	-0.28
Mof_H 	H 	0.9451	0.0483	0.9593	-0.035
Mof_C 	C 	0.0267	0.0429	0.9706	0.055
Mof_H 	H 	0.9954	0.0743	0.9581	0.063
Mof_C 	C 	0.572	0.1296	0.9501	-0.798
Mof_H 	H 	0.5922	0.106	0.9309	0.612
Mof_H 	H 	0.544	0.1392	0.9309	-0.099
Mof_C 	C 	0.6052	0.1779	0.9518	-0.097
Mof_H 	H 	0.592	0.2029	0.9287	0.064
Mof_H 	H 	0.6392	0.17	0.9382	-0.083
Mof_H 	H 	0.9965	0.0746	0.9593	0.066
Mof_N 	N 	0.88611	0.28499	0.80789	-0.215
Mof_O 	O 	0.97177	0.06728	0.7688	-0.399
Mof_O 	O 	0.97752	0.0696	0.85501	-0.403
Mof_O 	O 	0.01226	0.43478	0.947	-0.499
Mof_O 	O 	0.93855	0.47325	0.94729	-0.471
Mof_N 	N 	0.004	0.0004	0.94993	0.163
Mof_C 	C 	0.96704	0.08826	0.81168	0.383
Mof_C 	C 	0.94688	0.14037	0.81141	-0.169
Mof_C 	C 	0.94042	0.16669	0.85668	0.115
Mof_H 	H 	0.9494	0.1523	0.888	-0.005
Mof_C 	C 	0.92059	0.21444	0.85588	-0.219
Mof_H 	H 	0.9158	0.2317	0.8867	0.099
Mof_C 	C 	0.90782	0.23651	0.80924	0.185
Mof_C 	C 	0.9142	0.21051	0.76411	-0.218
Mof_H 	H 	0.9054	0.225	0.7328	0.111
Mof_C 	C 	0.93376	0.16251	0.765	0.114
Mof_H 	H 	0.9381	0.1451	0.7342	0.007
Mof_C 	C 	0.90625	0.32361	0.83835	0.238
Mof_C 	C 	0.95708	0.32646	0.84702	-0.319
Mof_H 	H 	0.9782	0.3032	0.8318	0.153
Mof_C 	C 	0.9769	0.36322	0.87782	0.276
Mof_H 	H 	0.011	0.3639	0.8843	-0.08
Mof_C 	C 	0.94611	0.39948	0.89937	-0.269
Mof_C 	C 	0.89599	0.39749	0.89002	0.192
Mof_H 	H 	0.8753	0.4218	0.9041	-0.036
Mof_C 	C 	0.87526	0.36004	0.86009	-0.282
Mof_H 	H 	0.841	0.3591	0.8545	0.123
Mof_C 	C 	0.96704	0.43924	0.93435	0.478
Mof_C 	C 	0.84162	0.29187	0.77866	0.23
Mof_C 	C 	0.80508	0.25575	0.77876	-0.278
Mof_H 	H 	0.8093	0.2269	0.7983	0.124
Mof_N 	N 	0.9964	0.0029	0.6774	-0.075
Mof_C 	C 	0.014	0.0354	0.6381	-0.104
Mof_H 	H 	0.0236	0.0685	0.6426	0.063
Mof_N 	N 	0.0143	0.0086	0.5907	0.031
Mof_C 	C 	0.9969	0.9595	0.6008	0.262
Mof_H 	H 	0.9934	0.9342	0.5765	-0.061
Mof_C 	C 	0.9858	0.956	0.6543	-0.085
Mof_H 	H 	0.9738	0.9279	0.6713	0.074
Mof_C 	C 	0.0065	0.0347	0.545	-0.129
Mof_C 	C 	0.0139	0.0883	0.545	-0.027
Mof_H 	H 	0.0171	0.103	0.5774	0.022
Mof_N 	N 	0.11462	0.43752	0.0038	-0.167
Mof_N 	N 	0.1983	0.3858	0.0027	-0.246
Mof_C 	C 	0.1086	0.3856	0.0178	-2.697
Mof_H 	H 	0.0963	0.3838	0.053	1.252
Mof_H 	H 	0.0837	0.3707	0.9954	1.037
Mof_C 	C 	0.1554	0.356	0.0141	-0.6
Mof_H 	H 	0.1515	0.331	0.9872	-0.775
Mof_H 	H 	0.1608	0.3387	0.0465	-0.116
Mof_C 	C 	0.1559	0.4636	0.9815	-1.019
Mof_H 	H 	0.1502	0.4669	0.9446	0.629
Mof_H 	H 	0.1572	0.4969	0.996	0.033
Mof_C 	C 	0.205	0.4387	0.99	-0.013
Mof_H 	H 	0.2226	0.4552	0.0179	0.07
Mof_H 	H 	0.2252	0.4416	0.9589	0.027
Mof_C 	C 	0.0484	0.0103	0.97091	-0.081
Mof_H 	H 	0.0483	0.0549	0.9593	-0.02
Mof_C 	C 	0.0429	0.9733	0.9706	-0.229
Mof_H 	H 	0.0743	0.0046	0.9581	0.03
Mof_C 	C 	0.1296	0.428	0.9501	-0.798
Mof_H 	H 	0.106	0.4078	0.9309	0.612
Mof_H 	H 	0.1392	0.456	0.9309	-0.099
Mof_C 	C 	0.1779	0.3948	0.9518	-0.097
Mof_H 	H 	0.2029	0.408	0.9287	0.064
Mof_H 	H 	0.17	0.3608	0.9382	-0.083
Mof_H 	H 	0.0746	0.0035	0.9593	0.027
Mof_N 	N 	0.11389	0.71501	0.80789	-0.198
Mof_O 	O 	0.02823	0.93272	0.7688	-0.409
Mof_O 	O 	0.02248	0.9304	0.85501	-0.411
Mof_O 	O 	0.98774	0.56522	0.947	-0.402
Mof_O 	O 	0.06145	0.52675	0.94729	-0.44
Mof_N 	N 	0.996	0.9996	0.94993	-0.201
Mof_C 	C 	0.03296	0.91174	0.81168	0.385
Mof_C 	C 	0.05312	0.85963	0.81141	-0.176
Mof_C 	C 	0.05958	0.83331	0.85668	0.114
Mof_H 	H 	0.0506	0.8477	0.888	-0.011
Mof_C 	C 	0.07941	0.78556	0.85588	-0.219
Mof_H 	H 	0.0842	0.7683	0.8867	0.096
Mof_C 	C 	0.09218	0.76349	0.80924	0.181
Mof_C 	C 	0.0858	0.78949	0.76411	-0.22
Mof_H 	H 	0.0946	0.775	0.7328	0.106
Mof_C 	C 	0.06624	0.83749	0.765	0.114
Mof_H 	H 	0.0619	0.8549	0.7342	-0.001
Mof_C 	C 	0.09375	0.67639	0.83835	0.132
Mof_C 	C 	0.04292	0.67354	0.84702	-0.127
Mof_H 	H 	0.0218	0.6968	0.8318	0.067
Mof_C 	C 	0.0231	0.63678	0.87782	-0.041
Mof_H 	H 	0.989	0.6361	0.8843	0.087
Mof_C 	C 	0.05389	0.60052	0.89937	-0.102
Mof_C 	C 	0.10401	0.60251	0.89002	0.052
Mof_H 	H 	0.1247	0.5782	0.9041	0.01
Mof_C 	C 	0.12474	0.63996	0.86009	-0.168
Mof_H 	H 	0.159	0.6409	0.8545	0.084
Mof_C 	C 	0.03296	0.56076	0.93435	0.316
Mof_C 	C 	0.15838	0.70813	0.77866	0.225
Mof_C 	C 	0.19492	0.74425	0.77876	-0.273
Mof_H 	H 	0.1907	0.7731	0.7983	0.127
Mof_N 	N 	0.0036	0.9971	0.6774	0.034
Mof_C 	C 	0.986	0.9646	0.6381	0.026
Mof_H 	H 	0.9764	0.9315	0.6426	-0.003
Mof_N 	N 	0.9857	0.9914	0.5907	-0.302
Mof_C 	C 	0.0031	0.0405	0.6008	0.259
Mof_H 	H 	0.0066	0.0658	0.5765	-0.04
Mof_C 	C 	0.0142	0.044	0.6543	-0.118
Mof_H 	H 	0.0262	0.0721	0.6713	0.03
Mof_C 	C 	0.9935	0.9653	0.545	0.103
Mof_C 	C 	0.9861	0.9117	0.545	-0.109
Mof_H 	H 	0.9829	0.897	0.5774	0.075
Mof_N 	N 	0.88538	0.56248	0.0038	-0.168
Mof_N 	N 	0.8017	0.6142	0.0027	-0.245
Mof_C 	C 	0.8914	0.6144	0.0178	-2.701
Mof_H 	H 	0.9037	0.6162	0.053	1.256
Mof_H 	H 	0.9163	0.6293	0.9954	1.041
Mof_C 	C 	0.8446	0.644	0.0141	-0.599
Mof_H 	H 	0.8485	0.669	0.9872	-0.773
Mof_H 	H 	0.8392	0.6613	0.0465	-0.114
Mof_C 	C 	0.8441	0.5364	0.9815	-1.023
Mof_H 	H 	0.8498	0.5331	0.9446	0.636
Mof_H 	H 	0.8428	0.5031	0.996	0.035
Mof_C 	C 	0.795	0.5613	0.99	-0.01
Mof_H 	H 	0.7774	0.5448	0.0179	0.068
Mof_H 	H 	0.7748	0.5584	0.9589	0.027
Mof_C 	C 	0.9516	0.9897	0.97091	-0.106
Mof_H 	H 	0.9517	0.9451	0.9593	0.114
Mof_C 	C 	0.9571	0.0267	0.9706	0.156
Mof_H 	H 	0.9257	0.9954	0.9581	0.018
Mof_C 	C 	0.8704	0.572	0.9501	-0.788
Mof_H 	H 	0.894	0.5922	0.9309	0.61
Mof_H 	H 	0.8608	0.544	0.9309	-0.104
Mof_C 	C 	0.8221	0.6052	0.9518	-0.103
Mof_H 	H 	0.7971	0.592	0.9287	0.067
Mof_H 	H 	0.83	0.6392	0.9382	-0.079
Mof_H 	H 	0.9254	0.9965	0.9593	0.025
Mof_N 	N 	0.21501	0.61389	0.69211	-0.207
Mof_O 	O 	0.43272	0.52823	0.7312	-0.414
Mof_O 	O 	0.4304	0.52248	0.64499	-0.413
Mof_O 	O 	0.06522	0.48774	0.553	-0.423
Mof_O 	O 	0.02675	0.56145	0.55271	-0.441
Mof_N 	N 	0.4996	0.496	0.55007	-0.028
Mof_C 	C 	0.41174	0.53296	0.68832	0.388
Mof_C 	C 	0.35963	0.55312	0.68859	-0.173
Mof_C 	C 	0.33331	0.55958	0.64332	0.118
Mof_H 	H 	0.3477	0.5506	0.612	0.001
Mof_C 	C 	0.28556	0.57941	0.64412	-0.219
Mof_H 	H 	0.2683	0.5842	0.6133	0.109
Mof_C 	C 	0.26349	0.59218	0.69076	0.185
Mof_C 	C 	0.28949	0.5858	0.73589	-0.221
Mof_H 	H 	0.275	0.5946	0.7672	0.105
Mof_C 	C 	0.33749	0.56624	0.735	0.115
Mof_H 	H 	0.3549	0.5619	0.7658	-0.001
Mof_C 	C 	0.17639	0.59375	0.66165	0.189
Mof_C 	C 	0.17354	0.54292	0.65298	-0.226
Mof_H 	H 	0.1968	0.5218	0.6682	0.111
Mof_C 	C 	0.13678	0.5231	0.62218	0.125
Mof_H 	H 	0.1361	0.489	0.6157	-0.004
Mof_C 	C 	0.10052	0.55389	0.60063	-0.183
Mof_C 	C 	0.10251	0.60401	0.60998	0.126
Mof_H 	H 	0.0782	0.6247	0.5959	-0.008
Mof_C 	C 	0.13996	0.62474	0.63991	-0.223
Mof_H 	H 	0.1409	0.659	0.6455	0.108
Mof_C 	C 	0.06076	0.53296	0.56565	0.398
Mof_C 	C 	0.20813	0.65838	0.72134	0.227
Mof_C 	C 	0.24425	0.69492	0.72124	-0.273
Mof_H 	H 	0.2731	0.6907	0.7017	0.128
Mof_N 	N 	0.4971	0.5036	0.8226	-0.031
Mof_C 	C 	0.4646	0.486	0.8619	-0.051
Mof_H 	H 	0.4315	0.4764	0.8574	0.012
Mof_N 	N 	0.4914	0.4857	0.9093	-0.076
Mof_C 	C 	0.5405	0.5031	0.8992	0.106
Mof_H 	H 	0.5658	0.5066	0.9235	0.058
Mof_C 	C 	0.544	0.5142	0.8457	0
Mof_H 	H 	0.5721	0.5262	0.8287	0.022
Mof_C 	C 	0.4653	0.4935	0.955	-0.027
Mof_C 	C 	0.4117	0.4861	0.955	-0.274
Mof_H 	H 	0.397	0.4829	0.9226	0.084
Mof_N 	N 	0.06248	0.38538	0.4962	-0.07
Mof_N 	N 	0.1142	0.3017	0.4973	-0.037
Mof_C 	C 	0.1144	0.3914	0.4822	-0.063
Mof_H 	H 	0.1162	0.4037	0.447	0.046
Mof_H 	H 	0.1293	0.4163	0.5046	0.032
Mof_C 	C 	0.144	0.3446	0.4859	-0.01
Mof_H 	H 	0.169	0.3485	0.5128	0.024
Mof_H 	H 	0.1613	0.3392	0.4535	-0.008
Mof_C 	C 	0.0364	0.3441	0.5185	-0.063
Mof_H 	H 	0.0331	0.3498	0.5554	0.087
Mof_H 	H 	0.0031	0.3428	0.504	0.021
Mof_C 	C 	0.0613	0.295	0.51	-0.012
Mof_H 	H 	0.0448	0.2774	0.4821	0.018
Mof_H 	H 	0.0584	0.2748	0.5411	0.009
Mof_C 	C 	0.4897	0.4516	0.52909	-0.051
Mof_H 	H 	0.4451	0.4517	0.5407	0.04
Mof_C 	C 	0.5267	0.4571	0.5294	-0.003
Mof_H 	H 	0.4954	0.4257	0.5419	0.023
Mof_C 	C 	0.072	0.3704	0.5499	0.057
Mof_H 	H 	0.0922	0.394	0.5691	-0.004
Mof_H 	H 	0.044	0.3608	0.5691	-0.063
Mof_C 	C 	0.1052	0.3221	0.5482	-0.084
Mof_H 	H 	0.092	0.2971	0.5713	0.048
Mof_H 	H 	0.1392	0.33	0.5618	0.057
Mof_H 	H 	0.4965	0.4254	0.5407	0.023
Mof_N 	N 	0.78499	0.38611	0.69211	-0.206
Mof_O 	O 	0.56728	0.47177	0.7312	-0.414
Mof_O 	O 	0.5696	0.47752	0.64499	-0.413
Mof_O 	O 	0.93478	0.51226	0.553	-0.405
Mof_O 	O 	0.97325	0.43855	0.55271	-0.395
Mof_N 	N 	0.5004	0.504	0.55007	-0.028
Mof_C 	C 	0.58826	0.46704	0.68832	0.388
Mof_C 	C 	0.64037	0.44688	0.68859	-0.173
Mof_C 	C 	0.66669	0.44042	0.64332	0.118
Mof_H 	H 	0.6523	0.4494	0.612	0.001
Mof_C 	C 	0.71444	0.42059	0.64412	-0.219
Mof_H 	H 	0.7317	0.4158	0.6133	0.109
Mof_C 	C 	0.73651	0.40782	0.69076	0.185
Mof_C 	C 	0.71051	0.4142	0.73589	-0.22
Mof_H 	H 	0.725	0.4054	0.7672	0.105
Mof_C 	C 	0.66251	0.43376	0.735	0.115
Mof_H 	H 	0.6451	0.4381	0.7658	-0.001
Mof_C 	C 	0.82361	0.40625	0.66165	0.184
Mof_C 	C 	0.82646	0.45708	0.65298	-0.216
Mof_H 	H 	0.8032	0.4782	0.6682	0.11
Mof_C 	C 	0.86322	0.4769	0.62218	0.118
Mof_H 	H 	0.8639	0.511	0.6157	0.003
Mof_C 	C 	0.89948	0.44611	0.60063	-0.165
Mof_C 	C 	0.89749	0.39599	0.60998	0.116
Mof_H 	H 	0.9218	0.3753	0.5959	0.01
Mof_C 	C 	0.86004	0.37526	0.63991	-0.211
Mof_H 	H 	0.8591	0.341	0.6455	0.109
Mof_C 	C 	0.93924	0.46704	0.56565	0.39
Mof_C 	C 	0.79187	0.34162	0.72134	0.23
Mof_C 	C 	0.75575	0.30508	0.72124	-0.277
Mof_H 	H 	0.7269	0.3093	0.7017	0.129
Mof_N 	N 	0.5029	0.4964	0.8226	-0.031
Mof_C 	C 	0.5354	0.514	0.8619	-0.052
Mof_H 	H 	0.5685	0.5236	0.8574	0.012
Mof_N 	N 	0.5086	0.5143	0.9093	-0.075
Mof_C 	C 	0.4595	0.4969	0.8992	0.106
Mof_H 	H 	0.4342	0.4934	0.9235	0.057
Mof_C 	C 	0.456	0.4858	0.8457	-0
Mof_H 	H 	0.4279	0.4738	0.8287	0.022
Mof_C 	C 	0.5347	0.5065	0.955	-0.026
Mof_C 	C 	0.5883	0.5139	0.955	-0.274
Mof_H 	H 	0.603	0.5171	0.9226	0.084
Mof_N 	N 	0.93752	0.61462	0.4962	-0.068
Mof_N 	N 	0.8858	0.6983	0.4973	-0.035
Mof_C 	C 	0.8856	0.6086	0.4822	-0.071
Mof_H 	H 	0.8838	0.5963	0.447	0.05
Mof_H 	H 	0.8707	0.5837	0.5046	0.035
Mof_C 	C 	0.856	0.6554	0.4859	-0.004
Mof_H 	H 	0.831	0.6515	0.5128	0.022
Mof_H 	H 	0.8387	0.6608	0.4535	-0.011
Mof_C 	C 	0.9636	0.6559	0.5185	-0.073
Mof_H 	H 	0.9669	0.6502	0.5554	0.112
Mof_H 	H 	0.9969	0.6572	0.504	0.035
Mof_C 	C 	0.9387	0.705	0.51	-0.012
Mof_H 	H 	0.9552	0.7226	0.4821	0.025
Mof_H 	H 	0.9416	0.7252	0.5411	0.016
Mof_C 	C 	0.5103	0.5484	0.52909	-0.051
Mof_H 	H 	0.5549	0.5483	0.5407	0.04
Mof_C 	C 	0.4733	0.5429	0.5294	-0.003
Mof_H 	H 	0.5046	0.5743	0.5419	0.023
Mof_C 	C 	0.928	0.6296	0.5499	0.078
Mof_H 	H 	0.9078	0.606	0.5691	-0.005
Mof_H 	H 	0.956	0.6392	0.5691	-0.071
Mof_C 	C 	0.8948	0.6779	0.5482	-0.099
Mof_H 	H 	0.908	0.7029	0.5713	0.06
Mof_H 	H 	0.8608	0.67	0.5618	0.066
Mof_H 	H 	0.5035	0.5746	0.5407	0.023
Mof_N 	N 	0.61389	0.78499	0.69211	-0.206
Mof_O 	O 	0.52823	0.56728	0.7312	-0.414
Mof_O 	O 	0.52248	0.5696	0.64499	-0.412
Mof_O 	O 	0.48774	0.93478	0.553	-0.405
Mof_O 	O 	0.56145	0.97325	0.55271	-0.396
Mof_N 	N 	0.496	0.5004	0.55007	-0.028
Mof_C 	C 	0.53296	0.58826	0.68832	0.388
Mof_C 	C 	0.55312	0.64037	0.68859	-0.173
Mof_C 	C 	0.55958	0.66669	0.64332	0.118
Mof_H 	H 	0.5506	0.6523	0.612	0.001
Mof_C 	C 	0.57941	0.71444	0.64412	-0.219
Mof_H 	H 	0.5842	0.7317	0.6133	0.109
Mof_C 	C 	0.59218	0.73651	0.69076	0.186
Mof_C 	C 	0.5858	0.71051	0.73589	-0.22
Mof_H 	H 	0.5946	0.725	0.7672	0.105
Mof_C 	C 	0.56624	0.66251	0.735	0.115
Mof_H 	H 	0.5619	0.6451	0.7658	-0.001
Mof_C 	C 	0.59375	0.82361	0.66165	0.185
Mof_C 	C 	0.54292	0.82646	0.65298	-0.216
Mof_H 	H 	0.5218	0.8032	0.6682	0.11
Mof_C 	C 	0.5231	0.86322	0.62218	0.118
Mof_H 	H 	0.489	0.8639	0.6157	0.003
Mof_C 	C 	0.55389	0.89948	0.60063	-0.165
Mof_C 	C 	0.60401	0.89749	0.60998	0.116
Mof_H 	H 	0.6247	0.9218	0.5959	0.009
Mof_C 	C 	0.62474	0.86004	0.63991	-0.212
Mof_H 	H 	0.659	0.8591	0.6455	0.109
Mof_C 	C 	0.53296	0.93924	0.56565	0.39
Mof_C 	C 	0.65838	0.79187	0.72134	0.231
Mof_C 	C 	0.69492	0.75575	0.72124	-0.277
Mof_H 	H 	0.6907	0.7269	0.7017	0.13
Mof_N 	N 	0.5036	0.5029	0.8226	-0.031
Mof_C 	C 	0.486	0.5354	0.8619	-0.052
Mof_H 	H 	0.4764	0.5685	0.8574	0.012
Mof_N 	N 	0.4857	0.5086	0.9093	-0.075
Mof_C 	C 	0.5031	0.4595	0.8992	0.106
Mof_H 	H 	0.5066	0.4342	0.9235	0.057
Mof_C 	C 	0.5142	0.456	0.8457	-0
Mof_H 	H 	0.5262	0.4279	0.8287	0.022
Mof_C 	C 	0.4935	0.5347	0.955	-0.026
Mof_C 	C 	0.4861	0.5883	0.955	-0.274
Mof_H 	H 	0.4829	0.603	0.9226	0.084
Mof_N 	N 	0.38538	0.93752	0.4962	-0.068
Mof_N 	N 	0.3017	0.8858	0.4973	-0.036
Mof_C 	C 	0.3914	0.8856	0.4822	-0.071
Mof_H 	H 	0.4037	0.8838	0.447	0.05
Mof_H 	H 	0.4163	0.8707	0.5046	0.035
Mof_C 	C 	0.3446	0.856	0.4859	-0.003
Mof_H 	H 	0.3485	0.831	0.5128	0.022
Mof_H 	H 	0.3392	0.8387	0.4535	-0.011
Mof_C 	C 	0.3441	0.9636	0.5185	-0.073
Mof_H 	H 	0.3498	0.9669	0.5554	0.112
Mof_H 	H 	0.3428	0.9969	0.504	0.035
Mof_C 	C 	0.295	0.9387	0.51	-0.012
Mof_H 	H 	0.2774	0.9552	0.4821	0.025
Mof_H 	H 	0.2748	0.9416	0.5411	0.015
Mof_C 	C 	0.4516	0.5103	0.52909	-0.051
Mof_H 	H 	0.4517	0.5549	0.5407	0.04
Mof_C 	C 	0.4571	0.4733	0.5294	-0.003
Mof_H 	H 	0.4257	0.5046	0.5419	0.023
Mof_C 	C 	0.3704	0.928	0.5499	0.078
Mof_H 	H 	0.394	0.9078	0.5691	-0.005
Mof_H 	H 	0.3608	0.956	0.5691	-0.072
Mof_C 	C 	0.3221	0.8948	0.5482	-0.099
Mof_H 	H 	0.2971	0.908	0.5713	0.06
Mof_H 	H 	0.33	0.8608	0.5618	0.066
Mof_H 	H 	0.4254	0.5035	0.5407	0.023
Mof_N 	N 	0.38611	0.21501	0.69211	-0.207
Mof_O 	O 	0.47177	0.43272	0.7312	-0.414
Mof_O 	O 	0.47752	0.4304	0.64499	-0.413
Mof_O 	O 	0.51226	0.06522	0.553	-0.423
Mof_O 	O 	0.43855	0.02675	0.55271	-0.441
Mof_N 	N 	0.504	0.4996	0.55007	-0.028
Mof_C 	C 	0.46704	0.41174	0.68832	0.388
Mof_C 	C 	0.44688	0.35963	0.68859	-0.173
Mof_C 	C 	0.44042	0.33331	0.64332	0.117
Mof_H 	H 	0.4494	0.3477	0.612	0.001
Mof_C 	C 	0.42059	0.28556	0.64412	-0.219
Mof_H 	H 	0.4158	0.2683	0.6133	0.109
Mof_C 	C 	0.40782	0.26349	0.69076	0.185
Mof_C 	C 	0.4142	0.28949	0.73589	-0.221
Mof_H 	H 	0.4054	0.275	0.7672	0.105
Mof_C 	C 	0.43376	0.33749	0.735	0.115
Mof_H 	H 	0.4381	0.3549	0.7658	-0.001
Mof_C 	C 	0.40625	0.17639	0.66165	0.188
Mof_C 	C 	0.45708	0.17354	0.65298	-0.225
Mof_H 	H 	0.4782	0.1968	0.6682	0.111
Mof_C 	C 	0.4769	0.13678	0.62218	0.125
Mof_H 	H 	0.511	0.1361	0.6157	-0.004
Mof_C 	C 	0.44611	0.10052	0.60063	-0.183
Mof_C 	C 	0.39599	0.10251	0.60998	0.126
Mof_H 	H 	0.3753	0.0782	0.5959	-0.008
Mof_C 	C 	0.37526	0.13996	0.63991	-0.223
Mof_H 	H 	0.341	0.1409	0.6455	0.107
Mof_C 	C 	0.46704	0.06076	0.56565	0.398
Mof_C 	C 	0.34162	0.20813	0.72134	0.226
Mof_C 	C 	0.30508	0.24425	0.72124	-0.274
Mof_H 	H 	0.3093	0.2731	0.7017	0.127
Mof_N 	N 	0.4964	0.4971	0.8226	-0.031
Mof_C 	C 	0.514	0.4646	0.8619	-0.051
Mof_H 	H 	0.5236	0.4315	0.8574	0.012
Mof_N 	N 	0.5143	0.4914	0.9093	-0.075
Mof_C 	C 	0.4969	0.5405	0.8992	0.106
Mof_H 	H 	0.4934	0.5658	0.9235	0.058
Mof_C 	C 	0.4858	0.544	0.8457	0
Mof_H 	H 	0.4738	0.5721	0.8287	0.022
Mof_C 	C 	0.5065	0.4653	0.955	-0.027
Mof_C 	C 	0.5139	0.4117	0.955	-0.274
Mof_H 	H 	0.5171	0.397	0.9226	0.084
Mof_N 	N 	0.61462	0.06248	0.4962	-0.07
Mof_N 	N 	0.6983	0.1142	0.4973	-0.037
Mof_C 	C 	0.6086	0.1144	0.4822	-0.063
Mof_H 	H 	0.5963	0.1162	0.447	0.046
Mof_H 	H 	0.5837	0.1293	0.5046	0.032
Mof_C 	C 	0.6554	0.144	0.4859	-0.01
Mof_H 	H 	0.6515	0.169	0.5128	0.024
Mof_H 	H 	0.6608	0.1613	0.4535	-0.007
Mof_C 	C 	0.6559	0.0364	0.5185	-0.063
Mof_H 	H 	0.6502	0.0331	0.5554	0.087
Mof_H 	H 	0.6572	0.0031	0.504	0.021
Mof_C 	C 	0.705	0.0613	0.51	-0.012
Mof_H 	H 	0.7226	0.0448	0.4821	0.018
Mof_H 	H 	0.7252	0.0584	0.5411	0.009
Mof_C 	C 	0.5484	0.4897	0.52909	-0.051
Mof_H 	H 	0.5483	0.4451	0.5407	0.04
Mof_C 	C 	0.5429	0.5267	0.5294	-0.003
Mof_H 	H 	0.5743	0.4954	0.5419	0.023
Mof_C 	C 	0.6296	0.072	0.5499	0.057
Mof_H 	H 	0.606	0.0922	0.5691	-0.004
Mof_H 	H 	0.6392	0.044	0.5691	-0.063
Mof_C 	C 	0.6779	0.1052	0.5482	-0.084
Mof_H 	H 	0.7029	0.092	0.5713	0.048
Mof_H 	H 	0.67	0.1392	0.5618	0.058
Mof_H 	H 	0.5746	0.4965	0.5407	0.023
Mof_Cu	Cu	4.92718e-34	0	0.13624	0.876
Mof_Cu	Cu	3.58458e-33	2.71618e-33	0.24012	0.882
Mof_Cu	Cu	0.5	0.5	0.36376	0.912
Mof_Cu	Cu	0.5	0.5	0.25988	0.917
Mof_Cu	Cu	3.12382e-33	1.08647e-32	0.86376	0.878
Mof_Cu	Cu	2.74814e-33	1.08647e-32	0.75988	0.882
Mof_Cu	Cu	0.5	0.5	0.63624	0.912
Mof_Cu	Cu	0.5	0.5	0.74012	0.916
Mof_Cu	Cu	0.52315	0.04378	-0	0.949
Mof_Cu	Cu	0.47685	0.95622	-0	0.959
Mof_Cu	Cu	0.95622	0.52315	-0	0.959
Mof_Cu	Cu	0.04378	0.47685	-0	0.949
Mof_Cu	Cu	0.97685	0.54378	0.5	0.93
Mof_Cu	Cu	0.02315	0.45622	0.5	0.899
Mof_Cu	Cu	0.54378	0.02315	0.5	0.899
Mof_Cu	Cu	0.45622	0.97685	0.5	0.93
Mof_C 	C 	0.66526	0.83474	0.25	-0.301
Mof_H 	H 	0.6407	0.8593	0.25	0.144
Mof_C 	C 	0.73778	0.76222	0.25	0.189
Mof_H 	H 	0.7623	0.7377	0.25	-0.035
Mof_C 	C 	0.33474	0.16526	0.25	-0.295
Mof_H 	H 	0.3593	0.1407	0.25	0.138
Mof_C 	C 	0.26222	0.23778	0.25	0.183
Mof_H 	H 	0.2377	0.2623	0.25	-0.038
Mof_C 	C 	0.16526	0.66526	0.25	-0.296
Mof_H 	H 	0.1407	0.6407	0.25	0.138
Mof_C 	C 	0.23778	0.73778	0.25	0.184
Mof_H 	H 	0.2623	0.7623	0.25	-0.034
Mof_C 	C 	0.83474	0.33474	0.25	-0.301
Mof_H 	H 	0.8593	0.3593	0.25	0.144
Mof_C 	C 	0.76222	0.26222	0.25	0.188
Mof_H 	H 	0.7377	0.2377	0.25	-0.039
Mof_C 	C 	0.33474	0.16526	0.75	-0.294
Mof_H 	H 	0.3593	0.1407	0.75	0.138
Mof_C 	C 	0.26222	0.23778	0.75	0.178
Mof_H 	H 	0.2377	0.2623	0.75	-0.039
Mof_C 	C 	0.66526	0.83474	0.75	-0.3
Mof_H 	H 	0.6407	0.8593	0.75	0.143
Mof_C 	C 	0.73778	0.76222	0.75	0.184
Mof_H 	H 	0.7623	0.7377	0.75	-0.037
Mof_C 	C 	0.83474	0.33474	0.75	-0.3
Mof_H 	H 	0.8593	0.3593	0.75	0.143
Mof_C 	C 	0.76222	0.26222	0.75	0.182
Mof_H 	H 	0.7377	0.2377	0.75	-0.041
Mof_C 	C 	0.16526	0.66526	0.75	-0.294
Mof_H 	H 	0.1407	0.6407	0.75	0.138
Mof_C 	C 	0.23778	0.73778	0.75	0.179
Mof_H 	H 	0.2623	0.7623	0.75	-0.035
Mof_C 	C 	0.9999	0.0017	0.5	-0.056
Mof_H 	H 	0.0388	0.0073	0.5	0.031
Mof_C 	C 	0.877	0.017	0.5	-0.114
Mof_H 	H 	0.8411	0.9927	0.5	0.071
Mof_C 	C 	0.0001	0.9983	0.5	-0.045
Mof_H 	H 	0.9612	0.9927	0.5	0.116
Mof_C 	C 	0.123	0.983	0.5	0.106
Mof_H 	H 	0.1589	0.0073	0.5	-0.029
Mof_C 	C 	0.9983	0.9999	0.5	-0.261
Mof_H 	H 	0.9927	0.0388	0.5	0.16
Mof_C 	C 	0.983	0.877	0.5	0.047
Mof_H 	H 	0.0073	0.8411	0.5	-0.017
Mof_C 	C 	0.0017	0.0001	0.5	0.172
Mof_H 	H 	0.0073	0.9612	0.5	0.016
Mof_C 	C 	0.017	0.123	0.5	-0.096
Mof_H 	H 	0.9927	0.1589	0.5	0.07
Mof_C 	C 	0.5001	0.5017	-0	-0.05
Mof_H 	H 	0.4612	0.5073	-0	0.138
Mof_C 	C 	0.623	0.517	-0	0.119
Mof_H 	H 	0.6589	0.4927	-0	0.025
Mof_C 	C 	0.4999	0.4983	-0	-0.05
Mof_H 	H 	0.5388	0.4927	-0	0.138
Mof_C 	C 	0.377	0.483	-0	0.119
Mof_H 	H 	0.3411	0.5073	-0	0.025
Mof_C 	C 	0.5017	0.4999	-0	-0.05
Mof_H 	H 	0.5073	0.5388	-0	0.138
Mof_C 	C 	0.517	0.377	-0	0.119
Mof_H 	H 	0.4927	0.3411	-0	0.024
Mof_C 	C 	0.4983	0.5001	-0	-0.05
Mof_H 	H 	0.4927	0.4612	-0	0.138
Mof_C 	C 	0.483	0.623	-0	0.12
Mof_H 	H 	0.5073	0.6589	-0	0.025
_end
