data_functionalizedCrystal
_audit_creation_method	'EQeq! by Chris Wilmer'
_symmetry_space_group_name_H-M	'P1'
_symmetry_Int_Tables_number	1
_symmetry_cell_setting	triclinic
loop_
_symmetry_equiv_pos_as_xyz
  x,y,z
_cell_length_a	17.75
_cell_length_b	17.75
_cell_length_c	19.192
_cell_angle_alpha	90
_cell_angle_beta	90
_cell_angle_gamma	120
loop_
_atom_site_label
_atom_site_type_symbol
_atom_site_fract_x
_atom_site_fract_y
_atom_site_fract_z
_atom_site_charge
Mof_Zn	Zn	0.87288	0.50416	0.32784	1.117
Mof_Zn	Zn	0.63128	0.12712	0.32784	1.117
Mof_Zn	Zn	0.49584	0.36872	0.32784	1.117
Mof_Zn	Zn	0.36872	0.49584	0.67216	1.117
Mof_Zn	Zn	0.50416	0.87288	0.67216	1.117
Mof_Zn	Zn	0.12712	0.63128	0.67216	1.117
Mof_Zn	Zn	0.66667	0.33334	0.26447	1.134
Mof_Zn	Zn	0.66667	0.33334	0.07796	1.119
Mof_Zn	Zn	0.33333	0.66666	0.73553	1.133
Mof_Zn	Zn	0.33333	0.66666	0.92204	1.118
Mof_H 	H 	0.7946	0.1359	0.433	-0.004
Mof_H 	H 	0.9206	0.1998	0.4994	0.025
Mof_H 	H 	0.9796	0.4432	0.4398	0.009
Mof_H 	H 	0.8595	0.4702	0.0005	0.016
Mof_H 	H 	0.0854	0.6531	0.0897	0.02
Mof_H 	H 	0.0261	0.6191	0.2008	-0.002
Mof_H 	H 	0.3413	0.2054	0.433	-0.004
Mof_H 	H 	0.2792	0.0794	0.4994	0.025
Mof_H 	H 	0.4636	0.0204	0.4398	0.009
Mof_H 	H 	0.6107	0.1405	0.0005	0.016
Mof_H 	H 	0.5677	0.9146	0.0897	0.019
Mof_H 	H 	0.593	0.9739	0.2008	-0.001
Mof_H 	H 	0.8641	0.6587	0.433	-0.004
Mof_H 	H 	0.8002	0.7208	0.4994	0.025
Mof_H 	H 	0.5568	0.5364	0.4398	0.009
Mof_H 	H 	0.5298	0.3893	0.0005	0.016
Mof_H 	H 	0.3469	0.4323	0.0897	0.02
Mof_H 	H 	0.3809	0.407	0.2008	-0.002
Mof_H 	H 	0.6587	0.8641	0.567	-0.004
Mof_H 	H 	0.7208	0.8002	0.5006	0.025
Mof_H 	H 	0.5364	0.5568	0.5602	0.009
Mof_H 	H 	0.3893	0.5298	0.9995	0.016
Mof_H 	H 	0.4323	0.3469	0.9103	0.02
Mof_H 	H 	0.407	0.3809	0.7992	-0.002
Mof_H 	H 	0.1359	0.7946	0.567	-0.004
Mof_H 	H 	0.1998	0.9206	0.5006	0.025
Mof_H 	H 	0.4432	0.9796	0.5602	0.009
Mof_H 	H 	0.4702	0.8595	0.9995	0.016
Mof_H 	H 	0.6531	0.0854	0.9103	0.02
Mof_H 	H 	0.6191	0.0261	0.7992	-0.002
Mof_H 	H 	0.2054	0.3413	0.567	-0.004
Mof_H 	H 	0.0794	0.2792	0.5006	0.025
Mof_H 	H 	0.0204	0.4636	0.5602	0.009
Mof_H 	H 	0.1405	0.6107	0.9995	0.016
Mof_H 	H 	0.9146	0.5677	0.9103	0.019
Mof_H 	H 	0.9739	0.593	0.7992	-0.001
Mof_C 	C 	0.8673	0.34375	0.39747	0.04
Mof_C 	C 	0.8117	0.2531	0.39544	0.018
Mof_C 	C 	0.8313	0.1973	0.4342	-0.098
Mof_C 	C 	0.9055	0.2358	0.4733	-0.061
Mof_C 	C 	0.9615	0.3284	0.47673	0.01
Mof_C 	C 	0.9426	0.3818	0.43856	-0.137
Mof_C 	C 	0.9053	0.5214	0.16716	0.023
Mof_C 	C 	0.85729	0.47929	0.10786	0.039
Mof_C 	C 	0.8929	0.4997	0.04036	-0.134
Mof_C 	C 	0.9781	0.5641	0.03483	0.011
Mof_C 	C 	0.02668	0.60819	0.09528	-0.056
Mof_C 	C 	0.99265	0.58876	0.16112	-0.102
Mof_C 	C 	0.47645	0.1327	0.39747	0.04
Mof_C 	C 	0.4414	0.1883	0.39544	0.018
Mof_C 	C 	0.366	0.1687	0.4342	-0.098
Mof_C 	C 	0.3303	0.0945	0.4733	-0.061
Mof_C 	C 	0.3669	0.0385	0.47673	0.01
Mof_C 	C 	0.4392	0.0574	0.43856	-0.137
Mof_C 	C 	0.6161	0.0947	0.16716	0.024
Mof_C 	C 	0.622	0.14271	0.10786	0.039
Mof_C 	C 	0.6068	0.1071	0.04036	-0.133
Mof_C 	C 	0.586	0.0219	0.03483	0.011
Mof_C 	C 	0.58151	0.97332	0.09528	-0.056
Mof_C 	C 	0.59611	0.00735	0.16112	-0.102
Mof_C 	C 	0.65625	0.52355	0.39747	0.04
Mof_C 	C 	0.7469	0.5586	0.39544	0.018
Mof_C 	C 	0.8027	0.634	0.4342	-0.098
Mof_C 	C 	0.7642	0.6697	0.4733	-0.061
Mof_C 	C 	0.6716	0.6331	0.47673	0.01
Mof_C 	C 	0.6182	0.5608	0.43856	-0.137
Mof_C 	C 	0.4786	0.3839	0.16716	0.023
Mof_C 	C 	0.52071	0.378	0.10786	0.04
Mof_C 	C 	0.5003	0.3932	0.04036	-0.134
Mof_C 	C 	0.4359	0.414	0.03483	0.012
Mof_C 	C 	0.39181	0.41849	0.09528	-0.057
Mof_C 	C 	0.41124	0.40389	0.16112	-0.101
Mof_C 	C 	0.52355	0.65625	0.60253	0.04
Mof_C 	C 	0.5586	0.7469	0.60456	0.018
Mof_C 	C 	0.634	0.8027	0.5658	-0.098
Mof_C 	C 	0.6697	0.7642	0.5267	-0.061
Mof_C 	C 	0.6331	0.6716	0.52327	0.01
Mof_C 	C 	0.5608	0.6182	0.56144	-0.137
Mof_C 	C 	0.3839	0.4786	0.83284	0.023
Mof_C 	C 	0.378	0.52071	0.89214	0.04
Mof_C 	C 	0.3932	0.5003	0.95964	-0.134
Mof_C 	C 	0.414	0.4359	0.96517	0.012
Mof_C 	C 	0.41849	0.39181	0.90472	-0.057
Mof_C 	C 	0.40389	0.41124	0.83888	-0.101
Mof_C 	C 	0.34375	0.8673	0.60253	0.04
Mof_C 	C 	0.2531	0.8117	0.60456	0.018
Mof_C 	C 	0.1973	0.8313	0.5658	-0.098
Mof_C 	C 	0.2358	0.9055	0.5267	-0.061
Mof_C 	C 	0.3284	0.9615	0.52327	0.01
Mof_C 	C 	0.3818	0.9426	0.56144	-0.137
Mof_C 	C 	0.5214	0.9053	0.83284	0.023
Mof_C 	C 	0.47929	0.85729	0.89214	0.039
Mof_C 	C 	0.4997	0.8929	0.95964	-0.134
Mof_C 	C 	0.5641	0.9781	0.96517	0.011
Mof_C 	C 	0.60819	0.02668	0.90472	-0.056
Mof_C 	C 	0.58876	0.99265	0.83888	-0.102
Mof_C 	C 	0.1327	0.47645	0.60253	0.04
Mof_C 	C 	0.1883	0.4414	0.60456	0.018
Mof_C 	C 	0.1687	0.366	0.5658	-0.098
Mof_C 	C 	0.0945	0.3303	0.5267	-0.061
Mof_C 	C 	0.0385	0.3669	0.52327	0.01
Mof_C 	C 	0.0574	0.4392	0.56144	-0.137
Mof_C 	C 	0.0947	0.6161	0.83284	0.024
Mof_C 	C 	0.14271	0.622	0.89214	0.039
Mof_C 	C 	0.1071	0.6068	0.95964	-0.133
Mof_C 	C 	0.0219	0.586	0.96517	0.011
Mof_C 	C 	0.97332	0.58151	0.90472	-0.056
Mof_C 	C 	0.00735	0.59611	0.83888	-0.102
Mof_N 	N 	0.74431	0.2378	0.35294	-0.263
Mof_N 	N 	0.75739	0.31416	0.33034	-0.211
Mof_N 	N 	0.83101	0.37886	0.35666	-0.269
Mof_N 	N 	0.85265	0.48536	0.22328	-0.266
Mof_N 	N 	0.77604	0.42367	0.19914	-0.211
Mof_N 	N 	0.77666	0.4183	0.13042	-0.266
Mof_N 	N 	0.49349	0.25569	0.35294	-0.263
Mof_N 	N 	0.55677	0.24261	0.33034	-0.211
Mof_N 	N 	0.54785	0.16899	0.35666	-0.269
Mof_N 	N 	0.63271	0.14735	0.22328	-0.266
Mof_N 	N 	0.64763	0.22396	0.19914	-0.211
Mof_N 	N 	0.64164	0.22334	0.13042	-0.266
Mof_N 	N 	0.7622	0.50651	0.35294	-0.263
Mof_N 	N 	0.68584	0.44323	0.33034	-0.211
Mof_N 	N 	0.62114	0.45215	0.35666	-0.269
Mof_N 	N 	0.51464	0.36729	0.22328	-0.266
Mof_N 	N 	0.57633	0.35237	0.19914	-0.211
Mof_N 	N 	0.5817	0.35836	0.13042	-0.266
Mof_N 	N 	0.50651	0.7622	0.64706	-0.263
Mof_N 	N 	0.44323	0.68584	0.66966	-0.211
Mof_N 	N 	0.45215	0.62114	0.64334	-0.269
Mof_N 	N 	0.36729	0.51464	0.77672	-0.266
Mof_N 	N 	0.35237	0.57633	0.80086	-0.211
Mof_N 	N 	0.35836	0.5817	0.86958	-0.266
Mof_N 	N 	0.2378	0.74431	0.64706	-0.263
Mof_N 	N 	0.31416	0.75739	0.66966	-0.211
Mof_N 	N 	0.37886	0.83101	0.64334	-0.269
Mof_N 	N 	0.48536	0.85265	0.77672	-0.266
Mof_N 	N 	0.42367	0.77604	0.80086	-0.211
Mof_N 	N 	0.4183	0.77666	0.86958	-0.266
Mof_N 	N 	0.25569	0.49349	0.64706	-0.263
Mof_N 	N 	0.24261	0.55677	0.66966	-0.211
Mof_N 	N 	0.16899	0.54785	0.64334	-0.269
Mof_N 	N 	0.14735	0.63271	0.77672	-0.266
Mof_N 	N 	0.22396	0.64763	0.80086	-0.211
Mof_N 	N 	0.22334	0.64164	0.86958	-0.266
_end
