data_functionalizedCrystal
_audit_creation_method	'EQeq! by Chris Wilmer'
_symmetry_space_group_name_H-M	'P1'
_symmetry_Int_Tables_number	1
_symmetry_cell_setting	triclinic
loop_
_symmetry_equiv_pos_as_xyz
  x,y,z
_cell_length_a	6.6439
_cell_length_b	14.954
_cell_length_c	15.089
_cell_angle_alpha	90
_cell_angle_beta	90
_cell_angle_gamma	90.891
loop_
_atom_site_label
_atom_site_type_symbol
_atom_site_fract_x
_atom_site_fract_y
_atom_site_fract_z
_atom_site_charge
Mof_Al	Al	-0	0	-0	0.741
Mof_Al	Al	0.5	0.5	0.5	5.357
Mof_Al	Al	0.5	0	-0	2.3
Mof_Al	Al	4.7295e-19	0.5	0.5	4.335
Mof_H 	H 	0.74914	0.89654	0.02753	0.472
Mof_H 	H 	0.56869	0.21458	0.37471	-0.019
Mof_H 	H 	0.57627	0.11246	0.25942	-0.02
Mof_H 	H 	0.93498	0.37892	0.23834	0.058
Mof_H 	H 	0.94267	0.27686	0.123	0.049
Mof_H 	H 	0.75086	0.60346	0.52753	1.029
Mof_H 	H 	0.93131	0.28542	0.87471	0.177
Mof_H 	H 	0.92373	0.38754	0.75942	0.026
Mof_H 	H 	0.56502	0.12108	0.73834	0.043
Mof_H 	H 	0.55733	0.22314	0.623	-0.073
Mof_H 	H 	0.25086	0.10346	0.97247	0.427
Mof_H 	H 	0.43131	0.78542	0.62529	0.018
Mof_H 	H 	0.42373	0.88754	0.74058	0.137
Mof_H 	H 	0.06502	0.62108	0.76166	-0.092
Mof_H 	H 	0.05733	0.72314	0.877	0.069
Mof_H 	H 	0.24914	0.39654	0.47247	0.896
Mof_H 	H 	0.06869	0.71458	0.12529	0.007
Mof_H 	H 	0.07627	0.61246	0.24058	-0.159
Mof_H 	H 	0.43498	0.87892	0.26166	0.152
Mof_H 	H 	0.44267	0.77686	0.377	-0.009
Mof_C 	C 	0.73591	0.37493	0.38966	0.662
Mof_C 	C 	0.74728	0.30753	0.31677	-0.199
Mof_C 	C 	0.64274	0.22737	0.3238	0.018
Mof_C 	C 	0.75777	0.12059	0.10382	0.476
Mof_C 	C 	0.76078	0.18445	0.17995	-0.12
Mof_C 	C 	0.64829	0.16604	0.2551	-0.034
Mof_C 	C 	0.86166	0.3256	0.24229	0.033
Mof_C 	C 	0.86734	0.26432	0.17354	-0.025
Mof_C 	C 	0.76409	0.12507	0.88966	0.392
Mof_C 	C 	0.75272	0.19247	0.81677	0.03
Mof_C 	C 	0.85726	0.27263	0.8238	-0.155
Mof_C 	C 	0.74223	0.37941	0.60382	0.985
Mof_C 	C 	0.73922	0.31555	0.67995	-0.351
Mof_C 	C 	0.85171	0.33396	0.7551	0.213
Mof_C 	C 	0.63834	0.1744	0.74229	-0.167
Mof_C 	C 	0.63266	0.23568	0.67354	0.186
Mof_C 	C 	0.26409	0.62507	0.61034	0.731
Mof_C 	C 	0.25272	0.69247	0.68323	-0.313
Mof_C 	C 	0.35726	0.77263	0.6762	0.143
Mof_C 	C 	0.24223	0.87941	0.89618	0.446
Mof_C 	C 	0.23922	0.81555	0.82005	0.004
Mof_C 	C 	0.35171	0.83396	0.7449	-0.121
Mof_C 	C 	0.13834	0.6744	0.75771	0.138
Mof_C 	C 	0.13266	0.73568	0.82646	-0.15
Mof_C 	C 	0.23591	0.87493	0.11034	0.395
Mof_C 	C 	0.24728	0.80753	0.18323	-0.002
Mof_C 	C 	0.14274	0.72737	0.1762	-0.208
Mof_C 	C 	0.25777	0.62059	0.39618	1.022
Mof_C 	C 	0.26078	0.68445	0.32005	-0.423
Mof_C 	C 	0.14829	0.66604	0.2449	0.202
Mof_C 	C 	0.36166	0.8256	0.25771	-0.179
Mof_C 	C 	0.36734	0.76432	0.32646	0.228
Mof_O 	O 	0.75077	0.94799	0.01019	-0.856
Mof_O 	O 	0.925	0.09544	0.07478	-0.41
Mof_O 	O 	0.88399	0.42765	0.39896	-0.893
Mof_O 	O 	0.58819	0.09544	0.07545	-0.814
Mof_O 	O 	0.57943	0.37391	0.43677	-0.937
Mof_O 	O 	0.74923	0.55201	0.51019	-2.568
Mof_O 	O 	0.575	0.40456	0.57478	-1.35
Mof_O 	O 	0.61601	0.07235	0.89896	-0.578
Mof_O 	O 	0.91181	0.40456	0.57545	-1.024
Mof_O 	O 	0.92057	0.12609	0.93677	-0.158
Mof_O 	O 	0.24923	0.05201	0.98981	-1.032
Mof_O 	O 	0.075	0.90456	0.92522	-0.313
Mof_O 	O 	0.11601	0.57235	0.60104	-1.146
Mof_O 	O 	0.41181	0.90456	0.92455	-0.454
Mof_O 	O 	0.42057	0.62609	0.56323	-0.913
Mof_O 	O 	0.25077	0.44799	0.48981	-2.695
Mof_O 	O 	0.425	0.59544	0.42522	-1.337
Mof_O 	O 	0.38399	0.92765	0.10104	-0.534
Mof_O 	O 	0.08819	0.59544	0.42455	-1.295
Mof_O 	O 	0.07943	0.87391	0.06323	-0.471
_end
