# CIF file generated by openbabel 2.4.1, see http://openbabel.sf.net
data_I
_chemical_name_common 'image0'
_cell_length_a 25.556
_cell_length_b 25.556
_cell_length_c 22.751
_cell_angle_alpha 90
_cell_angle_beta 90
_cell_angle_gamma 90
_space_group_name_H-M_alt 'P 1'
_space_group_name_Hall 'P 1'
loop_
    _symmetry_equiv_pos_as_xyz
    x,y,z
loop_
    _atom_site_label
    _atom_site_type_symbol
    _atom_site_fract_x
    _atom_site_fract_y
    _atom_site_fract_z
    _atom_site_occupancy
    C1      C    0.38820   0.13130   0.63170   1.000
    C2      C    0.37770   0.18160   0.65870   1.000
    C3      C    0.32360   0.20290   0.65790   1.000
    H1      H    0.29920   0.18270   0.63780   1.000
    C4      C    0.30270   0.25190   0.68470   1.000
    H2      H    0.26870   0.26430   0.68030   1.000
    C5      C    0.38900   0.26340   0.71880   1.000
    H3      H    0.41270   0.28490   0.73820   1.000
    C6      C    0.40830   0.21470   0.69100   1.000
    H4      H    0.44350   0.20610   0.69570   1.000
    C7      C    0.25880   0.59180   0.63670   1.000
    H5      H    0.22320   0.59690   0.65050   1.000
    H6      H    0.25730   0.58860   0.59430   1.000
    C8      C    0.29090   0.64240   0.65170   1.000
    H7      H    0.27390   0.67360   0.63660   1.000
    H8      H    0.32620   0.64050   0.63620   1.000
    C9      C    0.27250   0.60160   0.92940   1.000
    H9      H    0.27700   0.60120   0.97170   1.000
    H10     H    0.23580   0.60650   0.92010   1.000
    C10     C    0.26270   0.51050   0.92500   1.000
    H11     H    0.26500   0.50960   0.96760   1.000
    H12     H    0.22630   0.51460   0.91390   1.000
    C11     C    0.32280   0.68220   0.80670   1.000
    C12     C    0.31520   0.68730   0.74740   1.000
    C13     C    0.36730   0.81670   0.70530   1.000
    C14     C    0.32980   0.84620   0.67960   1.000
    H13     H    0.29460   0.83820   0.68450   1.000
    C15     C    0.34510   0.88950   0.64520   1.000
    H14     H    0.31960   0.90950   0.62660   1.000
    C16     C    0.39340   0.90180   0.63890   1.000
    C17     C    0.43300   0.87430   0.66180   1.000
    H15     H    0.46780   0.88320   0.65500   1.000
    C18     C    0.41930   0.83170   0.69600   1.000
    H16     H    0.44580   0.81220   0.71360   1.000
    C19     C    0.40320   0.94770   0.61030   1.000
    C20     C    0.49150   0.22970   0.53110   1.000
    O1      O    0.45630   0.06560   0.54070   1.000
    O2      O    0.35850   0.10820   0.60310   1.000
    O3      O    0.43910   0.11940   0.64100   1.000
    O4      O    0.41190   0.99130   0.91910   1.000
    O5      O    0.47210   0.94640   0.96980   1.000
    O6      O    0.36840   0.98080   0.58690   1.000
    O7      O    0.45090   0.96570   0.59830   1.000
    S1      S    0.51550   0.28010   0.54240   1.000
    K1      K    0.28220   0.55128   0.78000   1.000
    C21     C    0.34220   0.27640   0.71730   1.000
    C22     C    0.32990   0.32490   0.75280   1.000
    C23     C    0.30950   0.36610   0.72600   1.000
    H17     H    0.30690   0.36450   0.68520   1.000
    C24     C    0.29870   0.40990   0.81380   1.000
    C25     C    0.31670   0.37060   0.84370   1.000
    H18     H    0.31650   0.36970   0.88460   1.000
    C26     C    0.33640   0.33000   0.80990   1.000
    C27     C    0.35560   0.28450   0.84820   1.000
    C28     C    0.32780   0.23670   0.84540   1.000
    H19     H    0.29770   0.23330   0.82280   1.000
    C29     C    0.34740   0.19520   0.87790   1.000
    H20     H    0.33120   0.16290   0.87300   1.000
    C30     C    0.38570   0.19730   0.91410   1.000
    C31     C    0.41370   0.24340   0.91080   1.000
    H21     H    0.44450   0.24600   0.93240   1.000
    C32     C    0.39970   0.28330   0.87950   1.000
    H22     H    0.42130   0.31250   0.87890   1.000
    C33     C    0.40360   0.15050   0.95260   1.000
    C34     C    0.26980   0.45640   0.66520   1.000
    H23     H    0.25280   0.42510   0.65040   1.000
    H24     H    0.30580   0.45600   0.65170   1.000
    C35     C    0.24210   0.50470   0.63980   1.000
    H25     H    0.23970   0.50260   0.59730   1.000
    H26     H    0.20720   0.50840   0.65600   1.000
    C36     C    0.30620   0.64270   0.90070   1.000
    H27     H    0.29670   0.67670   0.91650   1.000
    H28     H    0.34240   0.63620   0.91100   1.000
    C37     C    0.28360   0.46420   0.90050   1.000
    H29     H    0.32020   0.46190   0.91150   1.000
    H30     H    0.26580   0.43460   0.91810   1.000
    C38     C    0.33110   0.72990   0.71520   1.000
    H31     H    0.32630   0.73060   0.67470   1.000
    C39     C    0.35440   0.77160   0.74380   1.000
    C40     C    0.36280   0.77270   0.80320   1.000
    C41     C    0.34910   0.72470   0.83620   1.000
    H32     H    0.35740   0.72190   0.87590   1.000
    C42     C    0.38540   0.81650   0.83190   1.000
    C43     C    0.42950   0.81150   0.86920   1.000
    H33     H    0.44720   0.77980   0.87220   1.000
    C44     C    0.44640   0.85640   0.90220   1.000
    H34     H    0.47480   0.85360   0.92760   1.000
    C45     C    0.41960   0.90540   0.89620   1.000
    C46     C    0.37900   0.90900   0.85640   1.000
    H35     H    0.36400   0.94140   0.84850   1.000
    C47     C    0.36010   0.86420   0.82790   1.000
    H36     H    0.32970   0.86660   0.80550   1.000
    C48     C    0.43920   0.95140   0.93150   1.000
    C49     C    0.29230   0.40990   0.75190   1.000
    N1      N    0.48320   0.18360   0.50260   1.000
    O8      O    0.28010   0.46010   0.84210   1.000
    O9      O    0.29390   0.55320   0.90160   1.000
    O10     O    0.30180   0.64440   0.83820   1.000
    O11     O    0.29070   0.64140   0.72200   1.000
    O12     O    0.27570   0.54780   0.65790   1.000
    O13     O    0.26910   0.45540   0.72690   1.000
    O14     O    0.37630   0.11090   0.94340   1.000
    O15     O    0.43910   0.15740   0.98720   1.000
    Zn1     Zn   0.46017   0.11686   0.47792   1.000
    Zn2     Zn   0.38301   0.05009   0.55712   1.000
    C50     C    0.28520   0.55040   0.78140   1.000
    C51     C    0.61180   0.86870   0.63170   1.000
    C52     C    0.62230   0.81840   0.65870   1.000
    C53     C    0.67640   0.79710   0.65790   1.000
    H37     H    0.70080   0.81730   0.63780   1.000
    C54     C    0.69730   0.74810   0.68470   1.000
    H38     H    0.73130   0.73570   0.68030   1.000
    C55     C    0.61100   0.73660   0.71880   1.000
    H39     H    0.58730   0.71510   0.73820   1.000
    C56     C    0.59170   0.78530   0.69100   1.000
    H40     H    0.55650   0.79390   0.69570   1.000
    C57     C    0.74120   0.40820   0.63670   1.000
    H41     H    0.77680   0.40310   0.65050   1.000
    H42     H    0.74270   0.41140   0.59430   1.000
    C58     C    0.70910   0.35760   0.65170   1.000
    H43     H    0.72610   0.32640   0.63660   1.000
    H44     H    0.67380   0.35950   0.63620   1.000
    C59     C    0.72750   0.39840   0.92940   1.000
    H45     H    0.72300   0.39880   0.97170   1.000
    H46     H    0.76420   0.39350   0.92010   1.000
    C60     C    0.73730   0.48950   0.92500   1.000
    H47     H    0.73500   0.49040   0.96760   1.000
    H48     H    0.77370   0.48540   0.91390   1.000
    C61     C    0.67720   0.31780   0.80670   1.000
    C62     C    0.68480   0.31270   0.74740   1.000
    C63     C    0.63270   0.18330   0.70530   1.000
    C64     C    0.67020   0.15380   0.67960   1.000
    H49     H    0.70540   0.16180   0.68450   1.000
    C65     C    0.65490   0.11050   0.64520   1.000
    H50     H    0.68040   0.09050   0.62660   1.000
    C66     C    0.60660   0.09820   0.63890   1.000
    C67     C    0.56700   0.12570   0.66180   1.000
    H51     H    0.53220   0.11680   0.65500   1.000
    C68     C    0.58070   0.16830   0.69600   1.000
    H52     H    0.55420   0.18780   0.71360   1.000
    C69     C    0.59680   0.05230   0.61030   1.000
    C70     C    0.50850   0.77030   0.53110   1.000
    O16     O    0.54370   0.93440   0.54070   1.000
    O17     O    0.64150   0.89180   0.60310   1.000
    O18     O    0.56090   0.88060   0.64100   1.000
    O19     O    0.58810   0.00870   0.91910   1.000
    O20     O    0.52790   0.05360   0.96980   1.000
    O21     O    0.63160   0.01920   0.58690   1.000
    O22     O    0.54910   0.03430   0.59830   1.000
    S2      S    0.48450   0.71990   0.54240   1.000
    K2      K    0.71780   0.44872   0.78000   1.000
    C71     C    0.65780   0.72360   0.71730   1.000
    C72     C    0.67010   0.67510   0.75280   1.000
    C73     C    0.69050   0.63390   0.72600   1.000
    H53     H    0.69310   0.63550   0.68520   1.000
    C74     C    0.70130   0.59010   0.81380   1.000
    C75     C    0.68330   0.62940   0.84370   1.000
    H54     H    0.68350   0.63030   0.88460   1.000
    C76     C    0.66360   0.67000   0.80990   1.000
    C77     C    0.64440   0.71550   0.84820   1.000
    C78     C    0.67220   0.76330   0.84540   1.000
    H55     H    0.70230   0.76670   0.82280   1.000
    C79     C    0.65260   0.80480   0.87790   1.000
    H56     H    0.66880   0.83710   0.87300   1.000
    C80     C    0.61430   0.80270   0.91410   1.000
    C81     C    0.58630   0.75660   0.91080   1.000
    H57     H    0.55550   0.75400   0.93240   1.000
    C82     C    0.60030   0.71670   0.87950   1.000
    H58     H    0.57870   0.68750   0.87890   1.000
    C83     C    0.59640   0.84950   0.95260   1.000
    C84     C    0.73020   0.54360   0.66520   1.000
    H59     H    0.74720   0.57490   0.65040   1.000
    H60     H    0.69420   0.54400   0.65170   1.000
    C85     C    0.75790   0.49530   0.63980   1.000
    H61     H    0.76030   0.49740   0.59730   1.000
    H62     H    0.79280   0.49160   0.65600   1.000
    C86     C    0.69380   0.35730   0.90070   1.000
    H63     H    0.70330   0.32330   0.91650   1.000
    H64     H    0.65760   0.36380   0.91100   1.000
    C87     C    0.71640   0.53580   0.90050   1.000
    H65     H    0.67980   0.53810   0.91150   1.000
    H66     H    0.73420   0.56540   0.91810   1.000
    C88     C    0.66890   0.27010   0.71520   1.000
    H67     H    0.67370   0.26940   0.67470   1.000
    C89     C    0.64560   0.22840   0.74380   1.000
    C90     C    0.63720   0.22730   0.80320   1.000
    C91     C    0.65090   0.27530   0.83620   1.000
    H68     H    0.64260   0.27810   0.87590   1.000
    C92     C    0.61460   0.18350   0.83190   1.000
    C93     C    0.57050   0.18850   0.86920   1.000
    H69     H    0.55280   0.22020   0.87220   1.000
    C94     C    0.55360   0.14360   0.90220   1.000
    H70     H    0.52520   0.14640   0.92760   1.000
    C95     C    0.58040   0.09460   0.89620   1.000
    C96     C    0.62100   0.09100   0.85640   1.000
    H71     H    0.63600   0.05860   0.84850   1.000
    C97     C    0.63990   0.13580   0.82790   1.000
    H72     H    0.67030   0.13340   0.80550   1.000
    C98     C    0.56080   0.04860   0.93150   1.000
    C99     C    0.70770   0.59010   0.75190   1.000
    N2      N    0.51680   0.81640   0.50260   1.000
    O23     O    0.71990   0.53990   0.84210   1.000
    O24     O    0.70610   0.44680   0.90160   1.000
    O25     O    0.69820   0.35560   0.83820   1.000
    O26     O    0.70930   0.35860   0.72200   1.000
    O27     O    0.72430   0.45220   0.65790   1.000
    O28     O    0.73090   0.54460   0.72690   1.000
    O29     O    0.62370   0.88910   0.94340   1.000
    O30     O    0.56090   0.84260   0.98720   1.000
    Zn3     Zn   0.53983   0.88314   0.47792   1.000
    Zn4     Zn   0.61699   0.94991   0.55712   1.000
    C100    C    0.71480   0.44960   0.78140   1.000
    C101    C    0.36870   0.11180   0.13170   1.000
    C102    C    0.31840   0.12230   0.15870   1.000
    C103    C    0.29710   0.17640   0.15790   1.000
    H73     H    0.31730   0.20080   0.13780   1.000
    C104    C    0.24810   0.19730   0.18470   1.000
    H74     H    0.23570   0.23130   0.18030   1.000
    C105    C    0.23660   0.11100   0.21880   1.000
    H75     H    0.21510   0.08730   0.23820   1.000
    C106    C    0.28530   0.09170   0.19100   1.000
    H76     H    0.29390   0.05650   0.19570   1.000
    C107    C    0.90820   0.24120   0.13670   1.000
    H77     H    0.90310   0.27680   0.15050   1.000
    H78     H    0.91140   0.24270   0.09430   1.000
    C108    C    0.85760   0.20910   0.15170   1.000
    H79     H    0.82640   0.22610   0.13660   1.000
    H80     H    0.85950   0.17380   0.13620   1.000
    C109    C    0.89840   0.22750   0.42940   1.000
    H81     H    0.89880   0.22300   0.47170   1.000
    H82     H    0.89350   0.26420   0.42010   1.000
    C110    C    0.98950   0.23730   0.42500   1.000
    H83     H    0.99040   0.23500   0.46760   1.000
    H84     H    0.98540   0.27370   0.41390   1.000
    C111    C    0.81780   0.17720   0.30670   1.000
    C112    C    0.81270   0.18480   0.24740   1.000
    C113    C    0.68330   0.13270   0.20530   1.000
    C114    C    0.65380   0.17020   0.17960   1.000
    H85     H    0.66180   0.20540   0.18450   1.000
    C115    C    0.61050   0.15490   0.14520   1.000
    H86     H    0.59050   0.18040   0.12660   1.000
    C116    C    0.59820   0.10660   0.13890   1.000
    C117    C    0.62570   0.06700   0.16180   1.000
    H87     H    0.61680   0.03220   0.15500   1.000
    C118    C    0.66830   0.08070   0.19600   1.000
    H88     H    0.68780   0.05420   0.21360   1.000
    C119    C    0.55230   0.09680   0.11030   1.000
    C120    C    0.27030   0.00850   0.03110   1.000
    O31     O    0.43440   0.04370   0.04070   1.000
    O32     O    0.39180   0.14150   0.10310   1.000
    O33     O    0.38060   0.06090   0.14100   1.000
    O34     O    0.50870   0.08810   0.41910   1.000
    O35     O    0.55360   0.02790   0.46980   1.000
    O36     O    0.51920   0.13160   0.08690   1.000
    O37     O    0.53430   0.04910   0.09830   1.000
    S3      S    0.21990   0.98450   0.04240   1.000
    K3      K    0.94872   0.21780   0.28000   1.000
    C121    C    0.22360   0.15780   0.21730   1.000
    C122    C    0.17510   0.17010   0.25280   1.000
    C123    C    0.13390   0.19050   0.22600   1.000
    H89     H    0.13550   0.19310   0.18520   1.000
    C124    C    0.09010   0.20130   0.31380   1.000
    C125    C    0.12940   0.18330   0.34370   1.000
    H90     H    0.13030   0.18350   0.38460   1.000
    C126    C    0.17000   0.16360   0.30990   1.000
    C127    C    0.21550   0.14440   0.34820   1.000
    C128    C    0.26330   0.17220   0.34540   1.000
    H91     H    0.26670   0.20230   0.32280   1.000
    C129    C    0.30480   0.15260   0.37790   1.000
    H92     H    0.33710   0.16880   0.37300   1.000
    C130    C    0.30270   0.11430   0.41410   1.000
    C131    C    0.25660   0.08630   0.41080   1.000
    H93     H    0.25400   0.05550   0.43240   1.000
    C132    C    0.21670   0.10030   0.37950   1.000
    H94     H    0.18750   0.07870   0.37890   1.000
    C133    C    0.34950   0.09640   0.45260   1.000
    C134    C    0.04360   0.23020   0.16520   1.000
    H95     H    0.07490   0.24720   0.15040   1.000
    H96     H    0.04400   0.19420   0.15170   1.000
    C135    C    0.99530   0.25790   0.13980   1.000
    H97     H    0.99740   0.26030   0.09730   1.000
    H98     H    0.99160   0.29280   0.15600   1.000
    C136    C    0.85730   0.19380   0.40070   1.000
    H99     H    0.82330   0.20330   0.41650   1.000
    H100    H    0.86380   0.15760   0.41100   1.000
    C137    C    0.03580   0.21640   0.40050   1.000
    H101    H    0.03810   0.17980   0.41150   1.000
    H102    H    0.06540   0.23420   0.41810   1.000
    C138    C    0.77010   0.16890   0.21520   1.000
    H103    H    0.76940   0.17370   0.17470   1.000
    C139    C    0.72840   0.14560   0.24380   1.000
    C140    C    0.72730   0.13720   0.30320   1.000
    C141    C    0.77530   0.15090   0.33620   1.000
    H104    H    0.77810   0.14260   0.37590   1.000
    C142    C    0.68350   0.11460   0.33190   1.000
    C143    C    0.68850   0.07050   0.36920   1.000
    H105    H    0.72020   0.05280   0.37220   1.000
    C144    C    0.64360   0.05360   0.40220   1.000
    H106    H    0.64640   0.02520   0.42760   1.000
    C145    C    0.59460   0.08040   0.39620   1.000
    C146    C    0.59100   0.12100   0.35640   1.000
    H107    H    0.55860   0.13600   0.34850   1.000
    C147    C    0.63580   0.13990   0.32790   1.000
    H108    H    0.63340   0.17030   0.30550   1.000
    C148    C    0.54860   0.06080   0.43150   1.000
    C149    C    0.09010   0.20770   0.25190   1.000
    N3      N    0.31640   0.01680   0.00260   1.000
    O38     O    0.03990   0.21990   0.34210   1.000
    O39     O    0.94680   0.20610   0.40160   1.000
    O40     O    0.85560   0.19820   0.33820   1.000
    O41     O    0.85860   0.20930   0.22200   1.000
    O42     O    0.95220   0.22430   0.15790   1.000
    O43     O    0.04460   0.23090   0.22690   1.000
    O44     O    0.38910   0.12370   0.44340   1.000
    O45     O    0.34260   0.06090   0.48720   1.000
    Zn5     Zn   0.38314   0.03983   0.97792   1.000
    Zn6     Zn   0.44991   0.11699   0.05712   1.000
    C150    C    0.94960   0.21480   0.28140   1.000
    C151    C    0.63130   0.88820   0.13170   1.000
    C152    C    0.68160   0.87770   0.15870   1.000
    C153    C    0.70290   0.82360   0.15790   1.000
    H109    H    0.68270   0.79920   0.13780   1.000
    C154    C    0.75190   0.80270   0.18470   1.000
    H110    H    0.76430   0.76870   0.18030   1.000
    C155    C    0.76340   0.88900   0.21880   1.000
    H111    H    0.78490   0.91270   0.23820   1.000
    C156    C    0.71470   0.90830   0.19100   1.000
    H112    H    0.70610   0.94350   0.19570   1.000
    C157    C    0.09180   0.75880   0.13670   1.000
    H113    H    0.09690   0.72320   0.15050   1.000
    H114    H    0.08860   0.75730   0.09430   1.000
    C158    C    0.14240   0.79090   0.15170   1.000
    H115    H    0.17360   0.77390   0.13660   1.000
    H116    H    0.14050   0.82620   0.13620   1.000
    C159    C    0.10160   0.77250   0.42940   1.000
    H117    H    0.10120   0.77700   0.47170   1.000
    H118    H    0.10650   0.73580   0.42010   1.000
    C160    C    0.01050   0.76270   0.42500   1.000
    H119    H    0.00960   0.76500   0.46760   1.000
    H120    H    0.01460   0.72630   0.41390   1.000
    C161    C    0.18220   0.82280   0.30670   1.000
    C162    C    0.18730   0.81520   0.24740   1.000
    C163    C    0.31670   0.86730   0.20530   1.000
    C164    C    0.34620   0.82980   0.17960   1.000
    H121    H    0.33820   0.79460   0.18450   1.000
    C165    C    0.38950   0.84510   0.14520   1.000
    H122    H    0.40950   0.81960   0.12660   1.000
    C166    C    0.40180   0.89340   0.13890   1.000
    C167    C    0.37430   0.93300   0.16180   1.000
    H123    H    0.38320   0.96780   0.15500   1.000
    C168    C    0.33170   0.91930   0.19600   1.000
    H124    H    0.31220   0.94580   0.21360   1.000
    C169    C    0.44770   0.90320   0.11030   1.000
    C170    C    0.72970   0.99150   0.03110   1.000
    O46     O    0.56560   0.95630   0.04070   1.000
    O47     O    0.60820   0.85850   0.10310   1.000
    O48     O    0.61940   0.93910   0.14100   1.000
    O49     O    0.49130   0.91190   0.41910   1.000
    O50     O    0.44640   0.97210   0.46980   1.000
    O51     O    0.48080   0.86840   0.08690   1.000
    O52     O    0.46570   0.95090   0.09830   1.000
    S4      S    0.78010   0.01550   0.04240   1.000
    K4      K    0.05128   0.78220   0.28000   1.000
    C171    C    0.77640   0.84220   0.21730   1.000
    C172    C    0.82490   0.82990   0.25280   1.000
    C173    C    0.86610   0.80950   0.22600   1.000
    H125    H    0.86450   0.80690   0.18520   1.000
    C174    C    0.90990   0.79870   0.31380   1.000
    C175    C    0.87060   0.81670   0.34370   1.000
    H126    H    0.86970   0.81650   0.38460   1.000
    C176    C    0.83000   0.83640   0.30990   1.000
    C177    C    0.78450   0.85560   0.34820   1.000
    C178    C    0.73670   0.82780   0.34540   1.000
    H127    H    0.73330   0.79770   0.32280   1.000
    C179    C    0.69520   0.84740   0.37790   1.000
    H128    H    0.66290   0.83120   0.37300   1.000
    C180    C    0.69730   0.88570   0.41410   1.000
    C181    C    0.74340   0.91370   0.41080   1.000
    H129    H    0.74600   0.94450   0.43240   1.000
    C182    C    0.78330   0.89970   0.37950   1.000
    H130    H    0.81250   0.92130   0.37890   1.000
    C183    C    0.65050   0.90360   0.45260   1.000
    C184    C    0.95640   0.76980   0.16520   1.000
    H131    H    0.92510   0.75280   0.15040   1.000
    H132    H    0.95600   0.80580   0.15170   1.000
    C185    C    0.00470   0.74210   0.13980   1.000
    H133    H    0.00260   0.73970   0.09730   1.000
    H134    H    0.00840   0.70720   0.15600   1.000
    C186    C    0.14270   0.80620   0.40070   1.000
    H135    H    0.17670   0.79670   0.41650   1.000
    H136    H    0.13620   0.84240   0.41100   1.000
    C187    C    0.96420   0.78360   0.40050   1.000
    H137    H    0.96190   0.82020   0.41150   1.000
    H138    H    0.93460   0.76580   0.41810   1.000
    C188    C    0.22990   0.83110   0.21520   1.000
    H139    H    0.23060   0.82630   0.17470   1.000
    C189    C    0.27160   0.85440   0.24380   1.000
    C190    C    0.27270   0.86280   0.30320   1.000
    C191    C    0.22470   0.84910   0.33620   1.000
    H140    H    0.22190   0.85740   0.37590   1.000
    C192    C    0.31650   0.88540   0.33190   1.000
    C193    C    0.31150   0.92950   0.36920   1.000
    H141    H    0.27980   0.94720   0.37220   1.000
    C194    C    0.35640   0.94640   0.40220   1.000
    H142    H    0.35360   0.97480   0.42760   1.000
    C195    C    0.40540   0.91960   0.39620   1.000
    C196    C    0.40900   0.87900   0.35640   1.000
    H143    H    0.44140   0.86400   0.34850   1.000
    C197    C    0.36420   0.86010   0.32790   1.000
    H144    H    0.36660   0.82970   0.30550   1.000
    C198    C    0.45140   0.93920   0.43150   1.000
    C199    C    0.90990   0.79230   0.25190   1.000
    N4      N    0.68360   0.98320   0.00260   1.000
    O53     O    0.96010   0.78010   0.34210   1.000
    O54     O    0.05320   0.79390   0.40160   1.000
    O55     O    0.14440   0.80180   0.33820   1.000
    O56     O    0.14140   0.79070   0.22200   1.000
    O57     O    0.04780   0.77570   0.15790   1.000
    O58     O    0.95540   0.76910   0.22690   1.000
    O59     O    0.61090   0.87630   0.44340   1.000
    O60     O    0.65740   0.93910   0.48720   1.000
    Zn7     Zn   0.61686   0.96017   0.97792   1.000
    Zn8     Zn   0.55009   0.88301   0.05712   1.000
    C200    C    0.05040   0.78520   0.28140   1.000
    Zn9     Zn   0.50000   0.00000   0.53099   1.000
    Zn10    Zn   0.50000   0.00000   0.03099   1.000
    C201    C    0.13130   0.61180   0.36830   1.000
    C202    C    0.18160   0.62230   0.34130   1.000
    C203    C    0.20290   0.67640   0.34210   1.000
    H145    H    0.18270   0.70080   0.36220   1.000
    C204    C    0.25190   0.69730   0.31530   1.000
    H146    H    0.26430   0.73130   0.31970   1.000
    C205    C    0.26340   0.61100   0.28120   1.000
    H147    H    0.28490   0.58730   0.26180   1.000
    C206    C    0.21470   0.59170   0.30900   1.000
    H148    H    0.20610   0.55650   0.30430   1.000
    C207    C    0.59180   0.74120   0.36330   1.000
    H149    H    0.59690   0.77680   0.34950   1.000
    H150    H    0.58860   0.74270   0.40570   1.000
    C208    C    0.64240   0.70910   0.34830   1.000
    H151    H    0.67360   0.72610   0.36340   1.000
    H152    H    0.64050   0.67380   0.36380   1.000
    C209    C    0.60160   0.72750   0.07060   1.000
    H153    H    0.60120   0.72300   0.02830   1.000
    H154    H    0.60650   0.76420   0.07990   1.000
    C210    C    0.51050   0.73730   0.07500   1.000
    H155    H    0.50960   0.73500   0.03240   1.000
    H156    H    0.51460   0.77370   0.08610   1.000
    C211    C    0.68220   0.67720   0.19330   1.000
    C212    C    0.68730   0.68480   0.25260   1.000
    C213    C    0.81670   0.63270   0.29470   1.000
    C214    C    0.84620   0.67020   0.32040   1.000
    H157    H    0.83820   0.70540   0.31550   1.000
    C215    C    0.88950   0.65490   0.35480   1.000
    H158    H    0.90950   0.68040   0.37340   1.000
    C216    C    0.90180   0.60660   0.36110   1.000
    C217    C    0.87430   0.56700   0.33820   1.000
    H159    H    0.88320   0.53220   0.34500   1.000
    C218    C    0.83170   0.58070   0.30400   1.000
    H160    H    0.81220   0.55420   0.28640   1.000
    C219    C    0.94770   0.59680   0.38970   1.000
    C220    C    0.22970   0.50850   0.46890   1.000
    O61     O    0.06560   0.54370   0.45930   1.000
    O62     O    0.10820   0.64150   0.39690   1.000
    O63     O    0.11940   0.56090   0.35900   1.000
    O64     O    0.99130   0.58810   0.08090   1.000
    O65     O    0.94640   0.52790   0.03020   1.000
    O66     O    0.98080   0.63160   0.41310   1.000
    O67     O    0.96570   0.54910   0.40170   1.000
    S5      S    0.28010   0.48450   0.45760   1.000
    K5      K    0.55128   0.71780   0.22000   1.000
    C221    C    0.27640   0.65780   0.28270   1.000
    C222    C    0.32490   0.67010   0.24720   1.000
    C223    C    0.36610   0.69050   0.27400   1.000
    H161    H    0.36450   0.69310   0.31480   1.000
    C224    C    0.40990   0.70130   0.18620   1.000
    C225    C    0.37060   0.68330   0.15630   1.000
    H162    H    0.36970   0.68350   0.11540   1.000
    C226    C    0.33000   0.66360   0.19010   1.000
    C227    C    0.28450   0.64440   0.15180   1.000
    C228    C    0.23670   0.67220   0.15460   1.000
    H163    H    0.23330   0.70230   0.17720   1.000
    C229    C    0.19520   0.65260   0.12210   1.000
    H164    H    0.16290   0.66880   0.12700   1.000
    C230    C    0.19730   0.61430   0.08590   1.000
    C231    C    0.24340   0.58630   0.08920   1.000
    H165    H    0.24600   0.55550   0.06760   1.000
    C232    C    0.28330   0.60030   0.12050   1.000
    H166    H    0.31250   0.57870   0.12110   1.000
    C233    C    0.15050   0.59640   0.04740   1.000
    C234    C    0.45640   0.73020   0.33480   1.000
    H167    H    0.42510   0.74720   0.34960   1.000
    H168    H    0.45600   0.69420   0.34830   1.000
    C235    C    0.50470   0.75790   0.36020   1.000
    H169    H    0.50260   0.76030   0.40270   1.000
    H170    H    0.50840   0.79280   0.34400   1.000
    C236    C    0.64270   0.69380   0.09930   1.000
    H171    H    0.67670   0.70330   0.08350   1.000
    H172    H    0.63620   0.65760   0.08900   1.000
    C237    C    0.46420   0.71640   0.09950   1.000
    H173    H    0.46190   0.67980   0.08850   1.000
    H174    H    0.43460   0.73420   0.08190   1.000
    C238    C    0.72990   0.66890   0.28480   1.000
    H175    H    0.73060   0.67370   0.32530   1.000
    C239    C    0.77160   0.64560   0.25620   1.000
    C240    C    0.77270   0.63720   0.19680   1.000
    C241    C    0.72470   0.65090   0.16380   1.000
    H176    H    0.72190   0.64260   0.12410   1.000
    C242    C    0.81650   0.61460   0.16810   1.000
    C243    C    0.81150   0.57050   0.13080   1.000
    H177    H    0.77980   0.55280   0.12780   1.000
    C244    C    0.85640   0.55360   0.09780   1.000
    H178    H    0.85360   0.52520   0.07240   1.000
    C245    C    0.90540   0.58040   0.10380   1.000
    C246    C    0.90900   0.62100   0.14360   1.000
    H179    H    0.94140   0.63600   0.15150   1.000
    C247    C    0.86420   0.63990   0.17210   1.000
    H180    H    0.86660   0.67030   0.19450   1.000
    C248    C    0.95140   0.56080   0.06850   1.000
    C249    C    0.40990   0.70770   0.24810   1.000
    N5      N    0.18360   0.51680   0.49740   1.000
    O68     O    0.46010   0.71990   0.15790   1.000
    O69     O    0.55320   0.70610   0.09840   1.000
    O70     O    0.64440   0.69820   0.16180   1.000
    O71     O    0.64140   0.70930   0.27800   1.000
    O72     O    0.54780   0.72430   0.34210   1.000
    O73     O    0.45540   0.73090   0.27310   1.000
    O74     O    0.11090   0.62370   0.05660   1.000
    O75     O    0.15740   0.56090   0.01280   1.000
    Zn11    Zn   0.11686   0.53983   0.52208   1.000
    Zn12    Zn   0.05009   0.61699   0.44288   1.000
    C250    C    0.55040   0.71480   0.21860   1.000
    C251    C    0.86870   0.38820   0.36830   1.000
    C252    C    0.81840   0.37770   0.34130   1.000
    C253    C    0.79710   0.32360   0.34210   1.000
    H181    H    0.81730   0.29920   0.36220   1.000
    C254    C    0.74810   0.30270   0.31530   1.000
    H182    H    0.73570   0.26870   0.31970   1.000
    C255    C    0.73660   0.38900   0.28120   1.000
    H183    H    0.71510   0.41270   0.26180   1.000
    C256    C    0.78530   0.40830   0.30900   1.000
    H184    H    0.79390   0.44350   0.30430   1.000
    C257    C    0.40820   0.25880   0.36330   1.000
    H185    H    0.40310   0.22320   0.34950   1.000
    H186    H    0.41140   0.25730   0.40570   1.000
    C258    C    0.35760   0.29090   0.34830   1.000
    H187    H    0.32640   0.27390   0.36340   1.000
    H188    H    0.35950   0.32620   0.36380   1.000
    C259    C    0.39840   0.27250   0.07060   1.000
    H189    H    0.39880   0.27700   0.02830   1.000
    H190    H    0.39350   0.23580   0.07990   1.000
    C260    C    0.48950   0.26270   0.07500   1.000
    H191    H    0.49040   0.26500   0.03240   1.000
    H192    H    0.48540   0.22630   0.08610   1.000
    C261    C    0.31780   0.32280   0.19330   1.000
    C262    C    0.31270   0.31520   0.25260   1.000
    C263    C    0.18330   0.36730   0.29470   1.000
    C264    C    0.15380   0.32980   0.32040   1.000
    H193    H    0.16180   0.29460   0.31550   1.000
    C265    C    0.11050   0.34510   0.35480   1.000
    H194    H    0.09050   0.31960   0.37340   1.000
    C266    C    0.09820   0.39340   0.36110   1.000
    C267    C    0.12570   0.43300   0.33820   1.000
    H195    H    0.11680   0.46780   0.34500   1.000
    C268    C    0.16830   0.41930   0.30400   1.000
    H196    H    0.18780   0.44580   0.28640   1.000
    C269    C    0.05230   0.40320   0.38970   1.000
    C270    C    0.77030   0.49150   0.46890   1.000
    O76     O    0.93440   0.45630   0.45930   1.000
    O77     O    0.89180   0.35850   0.39690   1.000
    O78     O    0.88060   0.43910   0.35900   1.000
    O79     O    0.00870   0.41190   0.08090   1.000
    O80     O    0.05360   0.47210   0.03020   1.000
    O81     O    0.01920   0.36840   0.41310   1.000
    O82     O    0.03430   0.45090   0.40170   1.000
    S6      S    0.71990   0.51550   0.45760   1.000
    K6      K    0.44872   0.28220   0.22000   1.000
    C271    C    0.72360   0.34220   0.28270   1.000
    C272    C    0.67510   0.32990   0.24720   1.000
    C273    C    0.63390   0.30950   0.27400   1.000
    H197    H    0.63550   0.30690   0.31480   1.000
    C274    C    0.59010   0.29870   0.18620   1.000
    C275    C    0.62940   0.31670   0.15630   1.000
    H198    H    0.63030   0.31650   0.11540   1.000
    C276    C    0.67000   0.33640   0.19010   1.000
    C277    C    0.71550   0.35560   0.15180   1.000
    C278    C    0.76330   0.32780   0.15460   1.000
    H199    H    0.76670   0.29770   0.17720   1.000
    C279    C    0.80480   0.34740   0.12210   1.000
    H200    H    0.83710   0.33120   0.12700   1.000
    C280    C    0.80270   0.38570   0.08590   1.000
    C281    C    0.75660   0.41370   0.08920   1.000
    H201    H    0.75400   0.44450   0.06760   1.000
    C282    C    0.71670   0.39970   0.12050   1.000
    H202    H    0.68750   0.42130   0.12110   1.000
    C283    C    0.84950   0.40360   0.04740   1.000
    C284    C    0.54360   0.26980   0.33480   1.000
    H203    H    0.57490   0.25280   0.34960   1.000
    H204    H    0.54400   0.30580   0.34830   1.000
    C285    C    0.49530   0.24210   0.36020   1.000
    H205    H    0.49740   0.23970   0.40270   1.000
    H206    H    0.49160   0.20720   0.34400   1.000
    C286    C    0.35730   0.30620   0.09930   1.000
    H207    H    0.32330   0.29670   0.08350   1.000
    H208    H    0.36380   0.34240   0.08900   1.000
    C287    C    0.53580   0.28360   0.09950   1.000
    H209    H    0.53810   0.32020   0.08850   1.000
    H210    H    0.56540   0.26580   0.08190   1.000
    C288    C    0.27010   0.33110   0.28480   1.000
    H211    H    0.26940   0.32630   0.32530   1.000
    C289    C    0.22840   0.35440   0.25620   1.000
    C290    C    0.22730   0.36280   0.19680   1.000
    C291    C    0.27530   0.34910   0.16380   1.000
    H212    H    0.27810   0.35740   0.12410   1.000
    C292    C    0.18350   0.38540   0.16810   1.000
    C293    C    0.18850   0.42950   0.13080   1.000
    H213    H    0.22020   0.44720   0.12780   1.000
    C294    C    0.14360   0.44640   0.09780   1.000
    H214    H    0.14640   0.47480   0.07240   1.000
    C295    C    0.09460   0.41960   0.10380   1.000
    C296    C    0.09100   0.37900   0.14360   1.000
    H215    H    0.05860   0.36400   0.15150   1.000
    C297    C    0.13580   0.36010   0.17210   1.000
    H216    H    0.13340   0.32970   0.19450   1.000
    C298    C    0.04860   0.43920   0.06850   1.000
    C299    C    0.59010   0.29230   0.24810   1.000
    N6      N    0.81640   0.48320   0.49740   1.000
    O83     O    0.53990   0.28010   0.15790   1.000
    O84     O    0.44680   0.29390   0.09840   1.000
    O85     O    0.35560   0.30180   0.16180   1.000
    O86     O    0.35860   0.29070   0.27800   1.000
    O87     O    0.45220   0.27570   0.34210   1.000
    O88     O    0.54460   0.26910   0.27310   1.000
    O89     O    0.88910   0.37630   0.05660   1.000
    O90     O    0.84260   0.43910   0.01280   1.000
    Zn13    Zn   0.88314   0.46017   0.52208   1.000
    Zn14    Zn   0.94991   0.38301   0.44288   1.000
    C300    C    0.44960   0.28520   0.21860   1.000
    C301    C    0.11180   0.63130   0.86830   1.000
    C302    C    0.12230   0.68160   0.84130   1.000
    C303    C    0.17640   0.70290   0.84210   1.000
    H217    H    0.20080   0.68270   0.86220   1.000
    C304    C    0.19730   0.75190   0.81530   1.000
    H218    H    0.23130   0.76430   0.81970   1.000
    C305    C    0.11100   0.76340   0.78120   1.000
    H219    H    0.08730   0.78490   0.76180   1.000
    C306    C    0.09170   0.71470   0.80900   1.000
    H220    H    0.05650   0.70610   0.80430   1.000
    C307    C    0.24120   0.09180   0.86330   1.000
    H221    H    0.27680   0.09690   0.84950   1.000
    H222    H    0.24270   0.08860   0.90570   1.000
    C308    C    0.20910   0.14240   0.84830   1.000
    H223    H    0.22610   0.17360   0.86340   1.000
    H224    H    0.17380   0.14050   0.86380   1.000
    C309    C    0.22750   0.10160   0.57060   1.000
    H225    H    0.22300   0.10120   0.52830   1.000
    H226    H    0.26420   0.10650   0.57990   1.000
    C310    C    0.23730   0.01050   0.57500   1.000
    H227    H    0.23500   0.00960   0.53240   1.000
    H228    H    0.27370   0.01460   0.58610   1.000
    C311    C    0.17720   0.18220   0.69330   1.000
    C312    C    0.18480   0.18730   0.75260   1.000
    C313    C    0.13270   0.31670   0.79470   1.000
    C314    C    0.17020   0.34620   0.82040   1.000
    H229    H    0.20540   0.33820   0.81550   1.000
    C315    C    0.15490   0.38950   0.85480   1.000
    H230    H    0.18040   0.40950   0.87340   1.000
    C316    C    0.10660   0.40180   0.86110   1.000
    C317    C    0.06700   0.37430   0.83820   1.000
    H231    H    0.03220   0.38320   0.84500   1.000
    C318    C    0.08070   0.33170   0.80400   1.000
    H232    H    0.05420   0.31220   0.78640   1.000
    C319    C    0.09680   0.44770   0.88970   1.000
    C320    C    0.00850   0.72970   0.96890   1.000
    O91     O    0.04370   0.56560   0.95930   1.000
    O92     O    0.14150   0.60820   0.89690   1.000
    O93     O    0.06090   0.61940   0.85900   1.000
    O94     O    0.08810   0.49130   0.58090   1.000
    O95     O    0.02790   0.44640   0.53020   1.000
    O96     O    0.13160   0.48080   0.91310   1.000
    O97     O    0.04910   0.46570   0.90170   1.000
    S7      S    0.98450   0.78010   0.95760   1.000
    K7      K    0.21780   0.05128   0.72000   1.000
    C321    C    0.15780   0.77640   0.78270   1.000
    C322    C    0.17010   0.82490   0.74720   1.000
    C323    C    0.19050   0.86610   0.77400   1.000
    H233    H    0.19310   0.86450   0.81480   1.000
    C324    C    0.20130   0.90990   0.68620   1.000
    C325    C    0.18330   0.87060   0.65630   1.000
    H234    H    0.18350   0.86970   0.61540   1.000
    C326    C    0.16360   0.83000   0.69010   1.000
    C327    C    0.14440   0.78450   0.65180   1.000
    C328    C    0.17220   0.73670   0.65460   1.000
    H235    H    0.20230   0.73330   0.67720   1.000
    C329    C    0.15260   0.69520   0.62210   1.000
    H236    H    0.16880   0.66290   0.62700   1.000
    C330    C    0.11430   0.69730   0.58590   1.000
    C331    C    0.08630   0.74340   0.58920   1.000
    H237    H    0.05550   0.74600   0.56760   1.000
    C332    C    0.10030   0.78330   0.62050   1.000
    H238    H    0.07870   0.81250   0.62110   1.000
    C333    C    0.09640   0.65050   0.54740   1.000
    C334    C    0.23020   0.95640   0.83480   1.000
    H239    H    0.24720   0.92510   0.84960   1.000
    H240    H    0.19420   0.95600   0.84830   1.000
    C335    C    0.25790   0.00470   0.86020   1.000
    H241    H    0.26030   0.00260   0.90270   1.000
    H242    H    0.29280   0.00840   0.84400   1.000
    C336    C    0.19380   0.14270   0.59930   1.000
    H243    H    0.20330   0.17670   0.58350   1.000
    H244    H    0.15760   0.13620   0.58900   1.000
    C337    C    0.21640   0.96420   0.59950   1.000
    H245    H    0.17980   0.96190   0.58850   1.000
    H246    H    0.23420   0.93460   0.58190   1.000
    C338    C    0.16890   0.22990   0.78480   1.000
    H247    H    0.17370   0.23060   0.82530   1.000
    C339    C    0.14560   0.27160   0.75620   1.000
    C340    C    0.13720   0.27270   0.69680   1.000
    C341    C    0.15090   0.22470   0.66380   1.000
    H248    H    0.14260   0.22190   0.62410   1.000
    C342    C    0.11460   0.31650   0.66810   1.000
    C343    C    0.07050   0.31150   0.63080   1.000
    H249    H    0.05280   0.27980   0.62780   1.000
    C344    C    0.05360   0.35640   0.59780   1.000
    H250    H    0.02520   0.35360   0.57240   1.000
    C345    C    0.08040   0.40540   0.60380   1.000
    C346    C    0.12100   0.40900   0.64360   1.000
    H251    H    0.13600   0.44140   0.65150   1.000
    C347    C    0.13990   0.36420   0.67210   1.000
    H252    H    0.17030   0.36660   0.69450   1.000
    C348    C    0.06080   0.45140   0.56850   1.000
    C349    C    0.20770   0.90990   0.74810   1.000
    N7      N    0.01680   0.68360   0.99740   1.000
    O98     O    0.21990   0.96010   0.65790   1.000
    O99     O    0.20610   0.05320   0.59840   1.000
    O100    O    0.19820   0.14440   0.66180   1.000
    O101    O    0.20930   0.14140   0.77800   1.000
    O102    O    0.22430   0.04780   0.84210   1.000
    O103    O    0.23090   0.95540   0.77310   1.000
    O104    O    0.12370   0.61090   0.55660   1.000
    O105    O    0.06090   0.65740   0.51280   1.000
    Zn15    Zn   0.03983   0.61686   0.02208   1.000
    Zn16    Zn   0.11699   0.55009   0.94288   1.000
    C350    C    0.21480   0.05040   0.71860   1.000
    C351    C    0.88820   0.36870   0.86830   1.000
    C352    C    0.87770   0.31840   0.84130   1.000
    C353    C    0.82360   0.29710   0.84210   1.000
    H253    H    0.79920   0.31730   0.86220   1.000
    C354    C    0.80270   0.24810   0.81530   1.000
    H254    H    0.76870   0.23570   0.81970   1.000
    C355    C    0.88900   0.23660   0.78120   1.000
    H255    H    0.91270   0.21510   0.76180   1.000
    C356    C    0.90830   0.28530   0.80900   1.000
    H256    H    0.94350   0.29390   0.80430   1.000
    C357    C    0.75880   0.90820   0.86330   1.000
    H257    H    0.72320   0.90310   0.84950   1.000
    H258    H    0.75730   0.91140   0.90570   1.000
    C358    C    0.79090   0.85760   0.84830   1.000
    H259    H    0.77390   0.82640   0.86340   1.000
    H260    H    0.82620   0.85950   0.86380   1.000
    C359    C    0.77250   0.89840   0.57060   1.000
    H261    H    0.77700   0.89880   0.52830   1.000
    H262    H    0.73580   0.89350   0.57990   1.000
    C360    C    0.76270   0.98950   0.57500   1.000
    H263    H    0.76500   0.99040   0.53240   1.000
    H264    H    0.72630   0.98540   0.58610   1.000
    C361    C    0.82280   0.81780   0.69330   1.000
    C362    C    0.81520   0.81270   0.75260   1.000
    C363    C    0.86730   0.68330   0.79470   1.000
    C364    C    0.82980   0.65380   0.82040   1.000
    H265    H    0.79460   0.66180   0.81550   1.000
    C365    C    0.84510   0.61050   0.85480   1.000
    H266    H    0.81960   0.59050   0.87340   1.000
    C366    C    0.89340   0.59820   0.86110   1.000
    C367    C    0.93300   0.62570   0.83820   1.000
    H267    H    0.96780   0.61680   0.84500   1.000
    C368    C    0.91930   0.66830   0.80400   1.000
    H268    H    0.94580   0.68780   0.78640   1.000
    C369    C    0.90320   0.55230   0.88970   1.000
    C370    C    0.99150   0.27030   0.96890   1.000
    O106    O    0.95630   0.43440   0.95930   1.000
    O107    O    0.85850   0.39180   0.89690   1.000
    O108    O    0.93910   0.38060   0.85900   1.000
    O109    O    0.91190   0.50870   0.58090   1.000
    O110    O    0.97210   0.55360   0.53020   1.000
    O111    O    0.86840   0.51920   0.91310   1.000
    O112    O    0.95090   0.53430   0.90170   1.000
    S8      S    0.01550   0.21990   0.95760   1.000
    K8      K    0.78220   0.94872   0.72000   1.000
    C371    C    0.84220   0.22360   0.78270   1.000
    C372    C    0.82990   0.17510   0.74720   1.000
    C373    C    0.80950   0.13390   0.77400   1.000
    H269    H    0.80690   0.13550   0.81480   1.000
    C374    C    0.79870   0.09010   0.68620   1.000
    C375    C    0.81670   0.12940   0.65630   1.000
    H270    H    0.81650   0.13030   0.61540   1.000
    C376    C    0.83640   0.17000   0.69010   1.000
    C377    C    0.85560   0.21550   0.65180   1.000
    C378    C    0.82780   0.26330   0.65460   1.000
    H271    H    0.79770   0.26670   0.67720   1.000
    C379    C    0.84740   0.30480   0.62210   1.000
    H272    H    0.83120   0.33710   0.62700   1.000
    C380    C    0.88570   0.30270   0.58590   1.000
    C381    C    0.91370   0.25660   0.58920   1.000
    H273    H    0.94450   0.25400   0.56760   1.000
    C382    C    0.89970   0.21670   0.62050   1.000
    H274    H    0.92130   0.18750   0.62110   1.000
    C383    C    0.90360   0.34950   0.54740   1.000
    C384    C    0.76980   0.04360   0.83480   1.000
    H275    H    0.75280   0.07490   0.84960   1.000
    H276    H    0.80580   0.04400   0.84830   1.000
    C385    C    0.74210   0.99530   0.86020   1.000
    H277    H    0.73970   0.99740   0.90270   1.000
    H278    H    0.70720   0.99160   0.84400   1.000
    C386    C    0.80620   0.85730   0.59930   1.000
    H279    H    0.79670   0.82330   0.58350   1.000
    H280    H    0.84240   0.86380   0.58900   1.000
    C387    C    0.78360   0.03580   0.59950   1.000
    H281    H    0.82020   0.03810   0.58850   1.000
    H282    H    0.76580   0.06540   0.58190   1.000
    C388    C    0.83110   0.77010   0.78480   1.000
    H283    H    0.82630   0.76940   0.82530   1.000
    C389    C    0.85440   0.72840   0.75620   1.000
    C390    C    0.86280   0.72730   0.69680   1.000
    C391    C    0.84910   0.77530   0.66380   1.000
    H284    H    0.85740   0.77810   0.62410   1.000
    C392    C    0.88540   0.68350   0.66810   1.000
    C393    C    0.92950   0.68850   0.63080   1.000
    H285    H    0.94720   0.72020   0.62780   1.000
    C394    C    0.94640   0.64360   0.59780   1.000
    H286    H    0.97480   0.64640   0.57240   1.000
    C395    C    0.91960   0.59460   0.60380   1.000
    C396    C    0.87900   0.59100   0.64360   1.000
    H287    H    0.86400   0.55860   0.65150   1.000
    C397    C    0.86010   0.63580   0.67210   1.000
    H288    H    0.82970   0.63340   0.69450   1.000
    C398    C    0.93920   0.54860   0.56850   1.000
    C399    C    0.79230   0.09010   0.74810   1.000
    N8      N    0.98320   0.31640   0.99740   1.000
    O113    O    0.78010   0.03990   0.65790   1.000
    O114    O    0.79390   0.94680   0.59840   1.000
    O115    O    0.80180   0.85560   0.66180   1.000
    O116    O    0.79070   0.85860   0.77800   1.000
    O117    O    0.77570   0.95220   0.84210   1.000
    O118    O    0.76910   0.04460   0.77310   1.000
    O119    O    0.87630   0.38910   0.55660   1.000
    O120    O    0.93910   0.34260   0.51280   1.000
    Zn17    Zn   0.96017   0.38314   0.02208   1.000
    Zn18    Zn   0.88301   0.44991   0.94288   1.000
    C400    C    0.78520   0.94960   0.71860   1.000
    Zn19    Zn   0.00000   0.50000   0.46901   1.000
    Zn20    Zn   0.00000   0.50000   0.96901   1.000
