# CIF file generated by openbabel 2.4.1, see http://openbabel.sf.net
data_I
_chemical_name_common 'image0'
_cell_length_a 17.468
_cell_length_b 6.0489
_cell_length_c 18.8144
_cell_angle_alpha 90
_cell_angle_beta 118.086
_cell_angle_gamma 90
_space_group_name_H-M_alt 'P 1'
_space_group_name_Hall 'P 1'
loop_
    _symmetry_equiv_pos_as_xyz
    x,y,z
loop_
    _atom_site_label
    _atom_site_type_symbol
    _atom_site_fract_x
    _atom_site_fract_y
    _atom_site_fract_z
    _atom_site_occupancy
    O1      O    0.16497   0.74810   0.37999   1.000
    N1      N    0.96152   0.62010   0.31523   1.000
    C1      C    0.89320   0.66650   0.32930   1.000
    H1      H    0.85530   0.78500   0.30740   1.000
    O2      O    0.09566   0.02220   0.29858   1.000
    N2      N    0.95626   0.36870   0.39703   1.000
    C2      C    0.88930   0.51360   0.37980   1.000
    H2      H    0.84910   0.50770   0.39910   1.000
    C3      C    0.99791   0.44200   0.35676   1.000
    H3      H    0.04650   0.37430   0.35840   1.000
    C4      C    0.97841   0.18050   0.44903   1.000
    C5      C    0.92690   0.12110   0.48280   1.000
    H4      H    0.87730   0.20260   0.47160   1.000
    C6      C    0.05140   0.05960   0.46650   1.000
    H5      H    0.08680   0.09970   0.44400   1.000
    C7      C    0.16351   0.93620   0.35422   1.000
    C8      C    0.24426   0.07510   0.38780   1.000
    C9      C    0.31920   0.00470   0.45230   1.000
    H6      H    0.32080   0.86780   0.47550   1.000
    C10     C    0.39250   0.13610   0.48320   1.000
    H7      H    0.44230   0.08590   0.52770   1.000
    C11     C    0.39460   0.33640   0.45100   1.000
    C12     C    0.31980   0.40150   0.38680   1.000
    H8      H    0.31900   0.53650   0.36280   1.000
    C13     C    0.24440   0.27650   0.35510   1.000
    H9      H    0.19420   0.32950   0.31170   1.000
    C14     C    0.46240   0.51390   0.46930   1.000
    C15     C    0.49260   0.39000   0.51190   1.000
    H10     H    0.49340   0.52700   0.53820   1.000
    H11     H    0.50800   0.46400   0.46460   1.000
    O3      O    0.83503   0.74810   0.12001   1.000
    N3      N    0.03848   0.62010   0.18477   1.000
    C16     C    0.10680   0.66650   0.17070   1.000
    H12     H    0.14470   0.78500   0.19260   1.000
    O4      O    0.90434   0.02220   0.20142   1.000
    N4      N    0.04374   0.36870   0.10297   1.000
    C17     C    0.11070   0.51360   0.12020   1.000
    H13     H    0.15090   0.50770   0.10090   1.000
    C18     C    0.00209   0.44200   0.14324   1.000
    H14     H    0.95350   0.37430   0.14160   1.000
    C19     C    0.02159   0.18050   0.05097   1.000
    C20     C    0.07310   0.12110   0.01720   1.000
    H15     H    0.12270   0.20260   0.02840   1.000
    C21     C    0.94860   0.05960   0.03350   1.000
    H16     H    0.91320   0.09970   0.05600   1.000
    C22     C    0.83649   0.93620   0.14578   1.000
    C23     C    0.75574   0.07510   0.11220   1.000
    C24     C    0.68080   0.00470   0.04770   1.000
    H17     H    0.67920   0.86780   0.02450   1.000
    C25     C    0.60750   0.13610   0.01680   1.000
    H18     H    0.55770   0.08590   0.97230   1.000
    C26     C    0.60540   0.33640   0.04900   1.000
    C27     C    0.68020   0.40150   0.11320   1.000
    H19     H    0.68100   0.53650   0.13720   1.000
    C28     C    0.75560   0.27650   0.14490   1.000
    H20     H    0.80580   0.32950   0.18830   1.000
    C29     C    0.53760   0.51390   0.03070   1.000
    C30     C    0.50740   0.39000   0.98810   1.000
    H21     H    0.50660   0.52700   0.96180   1.000
    H22     H    0.49200   0.46400   0.03540   1.000
    O5      O    0.83503   0.25190   0.62001   1.000
    N5      N    0.03848   0.37990   0.68477   1.000
    C31     C    0.10680   0.33350   0.67070   1.000
    H23     H    0.14470   0.21500   0.69260   1.000
    O6      O    0.90434   0.97780   0.70142   1.000
    N6      N    0.04374   0.63130   0.60297   1.000
    C32     C    0.11070   0.48640   0.62020   1.000
    H24     H    0.15090   0.49230   0.60090   1.000
    C33     C    0.00209   0.55800   0.64324   1.000
    H25     H    0.95350   0.62570   0.64160   1.000
    C34     C    0.02159   0.81950   0.55097   1.000
    C35     C    0.07310   0.87890   0.51720   1.000
    H26     H    0.12270   0.79740   0.52840   1.000
    C36     C    0.94860   0.94040   0.53350   1.000
    H27     H    0.91320   0.90030   0.55600   1.000
    C37     C    0.83649   0.06380   0.64578   1.000
    C38     C    0.75574   0.92490   0.61220   1.000
    C39     C    0.68080   0.99530   0.54770   1.000
    H28     H    0.67920   0.13220   0.52450   1.000
    C40     C    0.60750   0.86390   0.51680   1.000
    H29     H    0.55770   0.91410   0.47230   1.000
    C41     C    0.60540   0.66360   0.54900   1.000
    C42     C    0.68020   0.59850   0.61320   1.000
    H30     H    0.68100   0.46350   0.63720   1.000
    C43     C    0.75560   0.72350   0.64490   1.000
    H31     H    0.80580   0.67050   0.68830   1.000
    C44     C    0.53760   0.48610   0.53070   1.000
    C45     C    0.50740   0.61000   0.48810   1.000
    H32     H    0.50660   0.47300   0.46180   1.000
    H33     H    0.49200   0.53600   0.53540   1.000
    O7      O    0.16497   0.25190   0.87999   1.000
    N7      N    0.96152   0.37990   0.81523   1.000
    C46     C    0.89320   0.33350   0.82930   1.000
    H34     H    0.85530   0.21500   0.80740   1.000
    O8      O    0.09566   0.97780   0.79858   1.000
    N8      N    0.95626   0.63130   0.89703   1.000
    C47     C    0.88930   0.48640   0.87980   1.000
    H35     H    0.84910   0.49230   0.89910   1.000
    C48     C    0.99791   0.55800   0.85676   1.000
    H36     H    0.04650   0.62570   0.85840   1.000
    C49     C    0.97841   0.81950   0.94903   1.000
    C50     C    0.92690   0.87890   0.98280   1.000
    H37     H    0.87730   0.79740   0.97160   1.000
    C51     C    0.05140   0.94040   0.96650   1.000
    H38     H    0.08680   0.90030   0.94400   1.000
    C52     C    0.16351   0.06380   0.85422   1.000
    C53     C    0.24426   0.92490   0.88780   1.000
    C54     C    0.31920   0.99530   0.95230   1.000
    H39     H    0.32080   0.13220   0.97550   1.000
    C55     C    0.39250   0.86390   0.98320   1.000
    H40     H    0.44230   0.91410   0.02770   1.000
    C56     C    0.39460   0.66360   0.95100   1.000
    C57     C    0.31980   0.59850   0.88680   1.000
    H41     H    0.31900   0.46350   0.86280   1.000
    C58     C    0.24440   0.72350   0.85510   1.000
    H42     H    0.19420   0.67050   0.81170   1.000
    C59     C    0.46240   0.48610   0.96930   1.000
    C60     C    0.49260   0.61000   0.01190   1.000
    H43     H    0.49340   0.47300   0.03820   1.000
    H44     H    0.50800   0.53600   0.96460   1.000
    Zn1     Zn   0.00000   0.80726   0.25000   1.000
    Zn2     Zn   0.00000   0.19274   0.75000   1.000
