# CIF file generated by openbabel 2.4.1, see http://openbabel.sf.net
data_I
_chemical_name_common 'QUNMUI_clean'
_cell_length_a 13.1489
_cell_length_b 13.1489
_cell_length_c 13.1489
_cell_angle_alpha 60
_cell_angle_beta 60
_cell_angle_gamma 60
_space_group_name_H-M_alt 'P 1'
_space_group_name_Hall 'P 1'
loop_
    _symmetry_equiv_pos_as_xyz
    x,y,z
loop_
    _atom_site_label
    _atom_site_type_symbol
    _atom_site_fract_x
    _atom_site_fract_y
    _atom_site_fract_z
    _atom_site_occupancy
    Cd1     Cd   0.50000   0.50000   0.50000   1.000
    Cd2     Cd   0.00000   0.00000   0.50000   1.000
    Cd3     Cd   0.00000   0.50000   0.00000   1.000
    Cd4     Cd   0.00000   0.50000   0.50000   1.000
    Cd5     Cd   0.12500   0.62500   0.62500   1.000
    Cd6     Cd   0.87500   0.37500   0.37500   1.000
    H1      H    0.49540   0.34740   0.80980   1.000
    H2      H    0.84740   0.99540   0.34740   1.000
    H3      H    0.30980   0.34740   0.99540   1.000
    H4      H    0.84740   0.80980   0.34740   1.000
    H5      H    0.49540   0.80980   0.34740   1.000
    H6      H    0.84740   0.34740   0.80980   1.000
    H7      H    0.30980   0.99540   0.34740   1.000
    H8      H    0.84740   0.34740   0.99540   1.000
    H9      H    0.49540   0.34740   0.34740   1.000
    H10     H    0.84740   0.80980   0.99540   1.000
    H11     H    0.30980   0.34740   0.34740   1.000
    H12     H    0.84740   0.99540   0.80980   1.000
    H13     H    0.15260   0.00460   0.19020   1.000
    H14     H    0.50460   0.65260   0.65260   1.000
    H15     H    0.15260   0.19020   0.00460   1.000
    H16     H    0.69020   0.65260   0.65260   1.000
    H17     H    0.69020   0.00460   0.65260   1.000
    H18     H    0.15260   0.65260   0.19020   1.000
    H19     H    0.50460   0.19020   0.65260   1.000
    H20     H    0.15260   0.65260   0.00460   1.000
    H21     H    0.15260   0.00460   0.65260   1.000
    H22     H    0.69020   0.65260   0.00460   1.000
    H23     H    0.15260   0.19020   0.65260   1.000
    H24     H    0.50460   0.65260   0.19020   1.000
    C1      C    0.41330   0.38770   0.81130   1.000
    C2      C    0.88770   0.91330   0.38770   1.000
    C3      C    0.31130   0.38770   0.91330   1.000
    C4      C    0.88770   0.81130   0.38770   1.000
    C5      C    0.41330   0.81130   0.38770   1.000
    C6      C    0.88770   0.38770   0.81130   1.000
    C7      C    0.31130   0.91330   0.38770   1.000
    C8      C    0.88770   0.38770   0.91330   1.000
    C9      C    0.41330   0.38770   0.38770   1.000
    C10     C    0.88770   0.81130   0.91330   1.000
    C11     C    0.31130   0.38770   0.38770   1.000
    C12     C    0.88770   0.91330   0.81130   1.000
    C13     C    0.11230   0.08670   0.18870   1.000
    C14     C    0.58670   0.61230   0.61230   1.000
    C15     C    0.11230   0.18870   0.08670   1.000
    C16     C    0.68870   0.61230   0.61230   1.000
    C17     C    0.68870   0.08670   0.61230   1.000
    C18     C    0.11230   0.61230   0.18870   1.000
    C19     C    0.58670   0.18870   0.61230   1.000
    C20     C    0.11230   0.61230   0.08670   1.000
    C21     C    0.11230   0.08670   0.61230   1.000
    C22     C    0.68870   0.61230   0.08670   1.000
    C23     C    0.11230   0.18870   0.61230   1.000
    C24     C    0.58670   0.61230   0.18870   1.000
    N1      N    0.37480   0.45780   0.70960   1.000
    N2      N    0.95780   0.87480   0.45780   1.000
    N3      N    0.20960   0.45780   0.87480   1.000
    N4      N    0.95780   0.70960   0.45780   1.000
    N5      N    0.37480   0.70960   0.45780   1.000
    N6      N    0.95780   0.45780   0.70960   1.000
    N7      N    0.20960   0.87480   0.45780   1.000
    N8      N    0.95780   0.45780   0.87480   1.000
    N9      N    0.37480   0.45780   0.45780   1.000
    N10     N    0.95780   0.70960   0.87480   1.000
    N11     N    0.20960   0.45780   0.45780   1.000
    N12     N    0.95780   0.87480   0.70960   1.000
    N13     N    0.04220   0.12520   0.29040   1.000
    N14     N    0.62520   0.54220   0.54220   1.000
    N15     N    0.04220   0.29040   0.12520   1.000
    N16     N    0.79040   0.54220   0.54220   1.000
    N17     N    0.79040   0.12520   0.54220   1.000
    N18     N    0.04220   0.54220   0.29040   1.000
    N19     N    0.62520   0.29040   0.54220   1.000
    N20     N    0.04220   0.54220   0.12520   1.000
    N21     N    0.04220   0.12520   0.54220   1.000
    N22     N    0.79040   0.54220   0.12520   1.000
    N23     N    0.04220   0.29040   0.54220   1.000
    N24     N    0.62520   0.54220   0.29040   1.000
    N25     N    0.25210   0.49790   0.75210   1.000
    N26     N    0.99790   0.75210   0.49790   1.000
    N27     N    0.25210   0.75210   0.49790   1.000
    N28     N    0.99790   0.49790   0.75210   1.000
    N29     N    0.25210   0.49790   0.49790   1.000
    N30     N    0.99790   0.75210   0.75210   1.000
    N31     N    0.00210   0.24790   0.24790   1.000
    N32     N    0.74790   0.50210   0.50210   1.000
    N33     N    0.74790   0.24790   0.50210   1.000
    N34     N    0.00210   0.50210   0.24790   1.000
    N35     N    0.00210   0.24790   0.50210   1.000
    N36     N    0.74790   0.50210   0.24790   1.000
