# CIF file generated by openbabel 2.4.1, see http://openbabel.sf.net
data_I
_chemical_name_common 'image0'
_cell_length_a 30.5521
_cell_length_b 30.5521
_cell_length_c 30.5521
_cell_angle_alpha 90
_cell_angle_beta 90
_cell_angle_gamma 90
_space_group_name_H-M_alt 'P 1'
_space_group_name_Hall 'P 1'
loop_
    _symmetry_equiv_pos_as_xyz
    x,y,z
loop_
    _atom_site_label
    _atom_site_type_symbol
    _atom_site_fract_x
    _atom_site_fract_y
    _atom_site_fract_z
    _atom_site_occupancy
    Cu1     Cu   0.00000   0.22846   0.00000   1.000
    Cu2     Cu   0.00000   0.31419   0.00000   1.000
    N1      N    0.00000   0.38297   0.00000   1.000
    C1      C    0.00000   0.47579   0.00000   1.000
    Cu3     Cu   0.00000   0.77154   0.00000   1.000
    Cu4     Cu   0.00000   0.68581   0.00000   1.000
    N2      N    0.00000   0.61703   0.00000   1.000
    C2      C    0.00000   0.52421   0.00000   1.000
    Cu5     Cu   0.00000   0.00000   0.22846   1.000
    Cu6     Cu   0.00000   0.00000   0.31419   1.000
    N3      N    0.00000   0.00000   0.38297   1.000
    C3      C    0.00000   0.00000   0.47579   1.000
    Cu7     Cu   0.00000   0.00000   0.77154   1.000
    Cu8     Cu   0.00000   0.00000   0.68581   1.000
    N4      N    0.00000   0.00000   0.61703   1.000
    C4      C    0.00000   0.00000   0.52421   1.000
    Cu9     Cu   0.22846   0.00000   0.00000   1.000
    Cu10    Cu   0.31419   0.00000   0.00000   1.000
    N5      N    0.38297   0.00000   0.00000   1.000
    C5      C    0.47579   0.00000   0.00000   1.000
    Cu11    Cu   0.77154   0.00000   0.00000   1.000
    Cu12    Cu   0.68581   0.00000   0.00000   1.000
    N6      N    0.61703   0.00000   0.00000   1.000
    C6      C    0.52421   0.00000   0.00000   1.000
    N7      N    0.00000   0.26545   0.26545   1.000
    H1      H    0.00000   0.28630   0.28630   1.000
    N8      N    0.00000   0.73455   0.26545   1.000
    H2      H    0.00000   0.71370   0.28630   1.000
    N9      N    0.00000   0.26545   0.73455   1.000
    H3      H    0.00000   0.28630   0.71370   1.000
    N10     N    0.00000   0.73455   0.73455   1.000
    H4      H    0.00000   0.71370   0.71370   1.000
    N11     N    0.26545   0.00000   0.26545   1.000
    H5      H    0.28630   0.00000   0.28630   1.000
    N12     N    0.26545   0.00000   0.73455   1.000
    H6      H    0.28630   0.00000   0.71370   1.000
    N13     N    0.73455   0.00000   0.26545   1.000
    H7      H    0.71370   0.00000   0.28630   1.000
    N14     N    0.73455   0.00000   0.73455   1.000
    H8      H    0.71370   0.00000   0.71370   1.000
    N15     N    0.26545   0.26545   0.00000   1.000
    H9      H    0.28630   0.28630   0.00000   1.000
    N16     N    0.73455   0.26545   0.00000   1.000
    H10     H    0.71370   0.28630   0.00000   1.000
    N17     N    0.26545   0.73455   0.00000   1.000
    H11     H    0.28630   0.71370   0.00000   1.000
    N18     N    0.73455   0.73455   0.00000   1.000
    H12     H    0.71370   0.71370   0.00000   1.000
    C7      C    0.00000   0.27237   0.08083   1.000
    C8      C    0.00000   0.27034   0.12815   1.000
    C9      C    0.00000   0.23141   0.15356   1.000
    H13     H    0.00000   0.20420   0.13780   1.000
    C10     C    0.00000   0.23212   0.19914   1.000
    C11     C    0.00000   0.27335   0.22407   1.000
    C12     C    0.00000   0.30904   0.20069   1.000
    H14     H    0.00000   0.33600   0.21680   1.000
    C13     C    0.00000   0.31141   0.15539   1.000
    H15     H    0.00000   0.33900   0.14030   1.000
    O1      O    0.00000   0.23485   0.06444   1.000
    O2      O    0.00000   0.30861   0.06278   1.000
    C14     C    0.00000   0.72763   0.08083   1.000
    C15     C    0.00000   0.72966   0.12815   1.000
    C16     C    0.00000   0.76859   0.15356   1.000
    H16     H    0.00000   0.79580   0.13780   1.000
    C17     C    0.00000   0.76788   0.19914   1.000
    C18     C    0.00000   0.72665   0.22407   1.000
    C19     C    0.00000   0.69096   0.20069   1.000
    H17     H    0.00000   0.66400   0.21680   1.000
    C20     C    0.00000   0.68859   0.15539   1.000
    H18     H    0.00000   0.66100   0.14030   1.000
    O3      O    0.00000   0.76515   0.06444   1.000
    O4      O    0.00000   0.69139   0.06278   1.000
    C21     C    0.00000   0.27237   0.91917   1.000
    C22     C    0.00000   0.27034   0.87185   1.000
    C23     C    0.00000   0.23141   0.84644   1.000
    H19     H    0.00000   0.20420   0.86220   1.000
    C24     C    0.00000   0.23212   0.80086   1.000
    C25     C    0.00000   0.27335   0.77593   1.000
    C26     C    0.00000   0.30904   0.79931   1.000
    H20     H    0.00000   0.33600   0.78320   1.000
    C27     C    0.00000   0.31141   0.84461   1.000
    H21     H    0.00000   0.33900   0.85970   1.000
    O5      O    0.00000   0.23485   0.93556   1.000
    O6      O    0.00000   0.30861   0.93722   1.000
    C28     C    0.00000   0.72763   0.91917   1.000
    C29     C    0.00000   0.72966   0.87185   1.000
    C30     C    0.00000   0.76859   0.84644   1.000
    H22     H    0.00000   0.79580   0.86220   1.000
    C31     C    0.00000   0.76788   0.80086   1.000
    C32     C    0.00000   0.72665   0.77593   1.000
    C33     C    0.00000   0.69096   0.79931   1.000
    H23     H    0.00000   0.66400   0.78320   1.000
    C34     C    0.00000   0.68859   0.84461   1.000
    H24     H    0.00000   0.66100   0.85970   1.000
    O7      O    0.00000   0.76515   0.93556   1.000
    O8      O    0.00000   0.69139   0.93722   1.000
    C35     C    0.08083   0.00000   0.27237   1.000
    C36     C    0.12815   0.00000   0.27034   1.000
    C37     C    0.15356   0.00000   0.23141   1.000
    H25     H    0.13780   0.00000   0.20420   1.000
    C38     C    0.19914   0.00000   0.23212   1.000
    C39     C    0.22407   0.00000   0.27335   1.000
    C40     C    0.20069   0.00000   0.30904   1.000
    H26     H    0.21680   0.00000   0.33600   1.000
    C41     C    0.15539   0.00000   0.31141   1.000
    H27     H    0.14030   0.00000   0.33900   1.000
    O9      O    0.06444   0.00000   0.23485   1.000
    O10     O    0.06278   0.00000   0.30861   1.000
    C42     C    0.08083   0.00000   0.72763   1.000
    C43     C    0.12815   0.00000   0.72966   1.000
    C44     C    0.15356   0.00000   0.76859   1.000
    H28     H    0.13780   0.00000   0.79580   1.000
    C45     C    0.19914   0.00000   0.76788   1.000
    C46     C    0.22407   0.00000   0.72665   1.000
    C47     C    0.20069   0.00000   0.69096   1.000
    H29     H    0.21680   0.00000   0.66400   1.000
    C48     C    0.15539   0.00000   0.68859   1.000
    H30     H    0.14030   0.00000   0.66100   1.000
    O11     O    0.06444   0.00000   0.76515   1.000
    O12     O    0.06278   0.00000   0.69139   1.000
    C49     C    0.91917   0.00000   0.27237   1.000
    C50     C    0.87185   0.00000   0.27034   1.000
    C51     C    0.84644   0.00000   0.23141   1.000
    H31     H    0.86220   0.00000   0.20420   1.000
    C52     C    0.80086   0.00000   0.23212   1.000
    C53     C    0.77593   0.00000   0.27335   1.000
    C54     C    0.79931   0.00000   0.30904   1.000
    H32     H    0.78320   0.00000   0.33600   1.000
    C55     C    0.84461   0.00000   0.31141   1.000
    H33     H    0.85970   0.00000   0.33900   1.000
    O13     O    0.93556   0.00000   0.23485   1.000
    O14     O    0.93722   0.00000   0.30861   1.000
    C56     C    0.91917   0.00000   0.72763   1.000
    C57     C    0.87185   0.00000   0.72966   1.000
    C58     C    0.84644   0.00000   0.76859   1.000
    H34     H    0.86220   0.00000   0.79580   1.000
    C59     C    0.80086   0.00000   0.76788   1.000
    C60     C    0.77593   0.00000   0.72665   1.000
    C61     C    0.79931   0.00000   0.69096   1.000
    H35     H    0.78320   0.00000   0.66400   1.000
    C62     C    0.84461   0.00000   0.68859   1.000
    H36     H    0.85970   0.00000   0.66100   1.000
    O15     O    0.93556   0.00000   0.76515   1.000
    O16     O    0.93722   0.00000   0.69139   1.000
    C63     C    0.27237   0.08083   0.00000   1.000
    C64     C    0.27034   0.12815   0.00000   1.000
    C65     C    0.23141   0.15356   0.00000   1.000
    H37     H    0.20420   0.13780   0.00000   1.000
    C66     C    0.23212   0.19914   0.00000   1.000
    C67     C    0.27335   0.22407   0.00000   1.000
    C68     C    0.30904   0.20069   0.00000   1.000
    H38     H    0.33600   0.21680   0.00000   1.000
    C69     C    0.31141   0.15539   0.00000   1.000
    H39     H    0.33900   0.14030   0.00000   1.000
    O17     O    0.23485   0.06444   0.00000   1.000
    O18     O    0.30861   0.06278   0.00000   1.000
    C70     C    0.72763   0.08083   0.00000   1.000
    C71     C    0.72966   0.12815   0.00000   1.000
    C72     C    0.76859   0.15356   0.00000   1.000
    H40     H    0.79580   0.13780   0.00000   1.000
    C73     C    0.76788   0.19914   0.00000   1.000
    C74     C    0.72665   0.22407   0.00000   1.000
    C75     C    0.69096   0.20069   0.00000   1.000
    H41     H    0.66400   0.21680   0.00000   1.000
    C76     C    0.68859   0.15539   0.00000   1.000
    H42     H    0.66100   0.14030   0.00000   1.000
    O19     O    0.76515   0.06444   0.00000   1.000
    O20     O    0.69139   0.06278   0.00000   1.000
    C77     C    0.27237   0.91917   0.00000   1.000
    C78     C    0.27034   0.87185   0.00000   1.000
    C79     C    0.23141   0.84644   0.00000   1.000
    H43     H    0.20420   0.86220   0.00000   1.000
    C80     C    0.23212   0.80086   0.00000   1.000
    C81     C    0.27335   0.77593   0.00000   1.000
    C82     C    0.30904   0.79931   0.00000   1.000
    H44     H    0.33600   0.78320   0.00000   1.000
    C83     C    0.31141   0.84461   0.00000   1.000
    H45     H    0.33900   0.85970   0.00000   1.000
    O21     O    0.23485   0.93556   0.00000   1.000
    O22     O    0.30861   0.93722   0.00000   1.000
    C84     C    0.72763   0.91917   0.00000   1.000
    C85     C    0.72966   0.87185   0.00000   1.000
    C86     C    0.76859   0.84644   0.00000   1.000
    H46     H    0.79580   0.86220   0.00000   1.000
    C87     C    0.76788   0.80086   0.00000   1.000
    C88     C    0.72665   0.77593   0.00000   1.000
    C89     C    0.69096   0.79931   0.00000   1.000
    H47     H    0.66400   0.78320   0.00000   1.000
    C90     C    0.68859   0.84461   0.00000   1.000
    H48     H    0.66100   0.85970   0.00000   1.000
    O23     O    0.76515   0.93556   0.00000   1.000
    O24     O    0.69139   0.93722   0.00000   1.000
    C91     C    0.27237   0.00000   0.91917   1.000
    C92     C    0.27034   0.00000   0.87185   1.000
    C93     C    0.23141   0.00000   0.84644   1.000
    H49     H    0.20420   0.00000   0.86220   1.000
    C94     C    0.23212   0.00000   0.80086   1.000
    C95     C    0.27335   0.00000   0.77593   1.000
    C96     C    0.30904   0.00000   0.79931   1.000
    H50     H    0.33600   0.00000   0.78320   1.000
    C97     C    0.31141   0.00000   0.84461   1.000
    H51     H    0.33900   0.00000   0.85970   1.000
    O25     O    0.23485   0.00000   0.93556   1.000
    O26     O    0.30861   0.00000   0.93722   1.000
    C98     C    0.72763   0.00000   0.91917   1.000
    C99     C    0.72966   0.00000   0.87185   1.000
    C100    C    0.76859   0.00000   0.84644   1.000
    H52     H    0.79580   0.00000   0.86220   1.000
    C101    C    0.76788   0.00000   0.80086   1.000
    C102    C    0.72665   0.00000   0.77593   1.000
    C103    C    0.69096   0.00000   0.79931   1.000
    H53     H    0.66400   0.00000   0.78320   1.000
    C104    C    0.68859   0.00000   0.84461   1.000
    H54     H    0.66100   0.00000   0.85970   1.000
    O27     O    0.76515   0.00000   0.93556   1.000
    O28     O    0.69139   0.00000   0.93722   1.000
    C105    C    0.27237   0.00000   0.08083   1.000
    C106    C    0.27034   0.00000   0.12815   1.000
    C107    C    0.23141   0.00000   0.15356   1.000
    H55     H    0.20420   0.00000   0.13780   1.000
    C108    C    0.23212   0.00000   0.19914   1.000
    C109    C    0.27335   0.00000   0.22407   1.000
    C110    C    0.30904   0.00000   0.20069   1.000
    H56     H    0.33600   0.00000   0.21680   1.000
    C111    C    0.31141   0.00000   0.15539   1.000
    H57     H    0.33900   0.00000   0.14030   1.000
    O29     O    0.23485   0.00000   0.06444   1.000
    O30     O    0.30861   0.00000   0.06278   1.000
    C112    C    0.72763   0.00000   0.08083   1.000
    C113    C    0.72966   0.00000   0.12815   1.000
    C114    C    0.76859   0.00000   0.15356   1.000
    H58     H    0.79580   0.00000   0.13780   1.000
    C115    C    0.76788   0.00000   0.19914   1.000
    C116    C    0.72665   0.00000   0.22407   1.000
    C117    C    0.69096   0.00000   0.20069   1.000
    H59     H    0.66400   0.00000   0.21680   1.000
    C118    C    0.68859   0.00000   0.15539   1.000
    H60     H    0.66100   0.00000   0.14030   1.000
    O31     O    0.76515   0.00000   0.06444   1.000
    O32     O    0.69139   0.00000   0.06278   1.000
    C119    C    0.00000   0.08083   0.72763   1.000
    C120    C    0.00000   0.12815   0.72966   1.000
    C121    C    0.00000   0.15356   0.76859   1.000
    H61     H    0.00000   0.13780   0.79580   1.000
    C122    C    0.00000   0.19914   0.76788   1.000
    C123    C    0.00000   0.22407   0.72665   1.000
    C124    C    0.00000   0.20069   0.69096   1.000
    H62     H    0.00000   0.21680   0.66400   1.000
    C125    C    0.00000   0.15539   0.68859   1.000
    H63     H    0.00000   0.14030   0.66100   1.000
    O33     O    0.00000   0.06444   0.76515   1.000
    O34     O    0.00000   0.06278   0.69139   1.000
    C126    C    0.00000   0.08083   0.27237   1.000
    C127    C    0.00000   0.12815   0.27034   1.000
    C128    C    0.00000   0.15356   0.23141   1.000
    H64     H    0.00000   0.13780   0.20420   1.000
    C129    C    0.00000   0.19914   0.23212   1.000
    C130    C    0.00000   0.22407   0.27335   1.000
    C131    C    0.00000   0.20069   0.30904   1.000
    H65     H    0.00000   0.21680   0.33600   1.000
    C132    C    0.00000   0.15539   0.31141   1.000
    H66     H    0.00000   0.14030   0.33900   1.000
    O35     O    0.00000   0.06444   0.23485   1.000
    O36     O    0.00000   0.06278   0.30861   1.000
    C133    C    0.00000   0.91917   0.72763   1.000
    C134    C    0.00000   0.87185   0.72966   1.000
    C135    C    0.00000   0.84644   0.76859   1.000
    H67     H    0.00000   0.86220   0.79580   1.000
    C136    C    0.00000   0.80086   0.76788   1.000
    C137    C    0.00000   0.77593   0.72665   1.000
    C138    C    0.00000   0.79931   0.69096   1.000
    H68     H    0.00000   0.78320   0.66400   1.000
    C139    C    0.00000   0.84461   0.68859   1.000
    H69     H    0.00000   0.85970   0.66100   1.000
    O37     O    0.00000   0.93556   0.76515   1.000
    O38     O    0.00000   0.93722   0.69139   1.000
    C140    C    0.00000   0.91917   0.27237   1.000
    C141    C    0.00000   0.87185   0.27034   1.000
    C142    C    0.00000   0.84644   0.23141   1.000
    H70     H    0.00000   0.86220   0.20420   1.000
    C143    C    0.00000   0.80086   0.23212   1.000
    C144    C    0.00000   0.77593   0.27335   1.000
    C145    C    0.00000   0.79931   0.30904   1.000
    H71     H    0.00000   0.78320   0.33600   1.000
    C146    C    0.00000   0.84461   0.31141   1.000
    H72     H    0.00000   0.85970   0.33900   1.000
    O39     O    0.00000   0.93556   0.23485   1.000
    O40     O    0.00000   0.93722   0.30861   1.000
    C147    C    0.08083   0.27237   0.00000   1.000
    C148    C    0.12815   0.27034   0.00000   1.000
    C149    C    0.15356   0.23141   0.00000   1.000
    H73     H    0.13780   0.20420   0.00000   1.000
    C150    C    0.19914   0.23212   0.00000   1.000
    C151    C    0.22407   0.27335   0.00000   1.000
    C152    C    0.20069   0.30904   0.00000   1.000
    H74     H    0.21680   0.33600   0.00000   1.000
    C153    C    0.15539   0.31141   0.00000   1.000
    H75     H    0.14030   0.33900   0.00000   1.000
    O41     O    0.06444   0.23485   0.00000   1.000
    O42     O    0.06278   0.30861   0.00000   1.000
    C154    C    0.08083   0.72763   0.00000   1.000
    C155    C    0.12815   0.72966   0.00000   1.000
    C156    C    0.15356   0.76859   0.00000   1.000
    H76     H    0.13780   0.79580   0.00000   1.000
    C157    C    0.19914   0.76788   0.00000   1.000
    C158    C    0.22407   0.72665   0.00000   1.000
    C159    C    0.20069   0.69096   0.00000   1.000
    H77     H    0.21680   0.66400   0.00000   1.000
    C160    C    0.15539   0.68859   0.00000   1.000
    H78     H    0.14030   0.66100   0.00000   1.000
    O43     O    0.06444   0.76515   0.00000   1.000
    O44     O    0.06278   0.69139   0.00000   1.000
    C161    C    0.91917   0.27237   0.00000   1.000
    C162    C    0.87185   0.27034   0.00000   1.000
    C163    C    0.84644   0.23141   0.00000   1.000
    H79     H    0.86220   0.20420   0.00000   1.000
    C164    C    0.80086   0.23212   0.00000   1.000
    C165    C    0.77593   0.27335   0.00000   1.000
    C166    C    0.79931   0.30904   0.00000   1.000
    H80     H    0.78320   0.33600   0.00000   1.000
    C167    C    0.84461   0.31141   0.00000   1.000
    H81     H    0.85970   0.33900   0.00000   1.000
    O45     O    0.93556   0.23485   0.00000   1.000
    O46     O    0.93722   0.30861   0.00000   1.000
    C168    C    0.91917   0.72763   0.00000   1.000
    C169    C    0.87185   0.72966   0.00000   1.000
    C170    C    0.84644   0.76859   0.00000   1.000
    H82     H    0.86220   0.79580   0.00000   1.000
    C171    C    0.80086   0.76788   0.00000   1.000
    C172    C    0.77593   0.72665   0.00000   1.000
    C173    C    0.79931   0.69096   0.00000   1.000
    H83     H    0.78320   0.66400   0.00000   1.000
    C174    C    0.84461   0.68859   0.00000   1.000
    H84     H    0.85970   0.66100   0.00000   1.000
    O47     O    0.93556   0.76515   0.00000   1.000
    O48     O    0.93722   0.69139   0.00000   1.000
    C175    C    0.03488   0.40558   0.00000   1.000
    H85     H    0.06160   0.38910   0.00000   1.000
    C176    C    0.03460   0.45110   0.00000   1.000
    H86     H    0.06300   0.46450   0.00000   1.000
    C177    C    0.96512   0.59442   0.00000   1.000
    H87     H    0.93840   0.61090   0.00000   1.000
    C178    C    0.96540   0.54890   0.00000   1.000
    H88     H    0.93700   0.53550   0.00000   1.000
    C179    C    0.96512   0.40558   0.00000   1.000
    H89     H    0.93840   0.38910   0.00000   1.000
    C180    C    0.96540   0.45110   0.00000   1.000
    H90     H    0.93700   0.46450   0.00000   1.000
    C181    C    0.03488   0.59442   0.00000   1.000
    H91     H    0.06160   0.61090   0.00000   1.000
    C182    C    0.03460   0.54890   0.00000   1.000
    H92     H    0.06300   0.53550   0.00000   1.000
    C183    C    0.00000   0.03488   0.40558   1.000
    H93     H    0.00000   0.06160   0.38910   1.000
    C184    C    0.00000   0.03460   0.45110   1.000
    H94     H    0.00000   0.06300   0.46450   1.000
    C185    C    0.00000   0.96512   0.59442   1.000
    H95     H    0.00000   0.93840   0.61090   1.000
    C186    C    0.00000   0.96540   0.54890   1.000
    H96     H    0.00000   0.93700   0.53550   1.000
    C187    C    0.00000   0.96512   0.40558   1.000
    H97     H    0.00000   0.93840   0.38910   1.000
    C188    C    0.00000   0.96540   0.45110   1.000
    H98     H    0.00000   0.93700   0.46450   1.000
    C189    C    0.00000   0.03488   0.59442   1.000
    H99     H    0.00000   0.06160   0.61090   1.000
    C190    C    0.00000   0.03460   0.54890   1.000
    H100    H    0.00000   0.06300   0.53550   1.000
    C191    C    0.40558   0.00000   0.03488   1.000
    H101    H    0.38910   0.00000   0.06160   1.000
    C192    C    0.45110   0.00000   0.03460   1.000
    H102    H    0.46450   0.00000   0.06300   1.000
    C193    C    0.59442   0.00000   0.96512   1.000
    H103    H    0.61090   0.00000   0.93840   1.000
    C194    C    0.54890   0.00000   0.96540   1.000
    H104    H    0.53550   0.00000   0.93700   1.000
    C195    C    0.40558   0.00000   0.96512   1.000
    H105    H    0.38910   0.00000   0.93840   1.000
    C196    C    0.45110   0.00000   0.96540   1.000
    H106    H    0.46450   0.00000   0.93700   1.000
    C197    C    0.59442   0.00000   0.03488   1.000
    H107    H    0.61090   0.00000   0.06160   1.000
    C198    C    0.54890   0.00000   0.03460   1.000
    H108    H    0.53550   0.00000   0.06300   1.000
    C199    C    0.40558   0.03488   0.00000   1.000
    H109    H    0.38910   0.06160   0.00000   1.000
    C200    C    0.45110   0.03460   0.00000   1.000
    H110    H    0.46450   0.06300   0.00000   1.000
    C201    C    0.59442   0.96512   0.00000   1.000
    H111    H    0.61090   0.93840   0.00000   1.000
    C202    C    0.54890   0.96540   0.00000   1.000
    H112    H    0.53550   0.93700   0.00000   1.000
    C203    C    0.40558   0.96512   0.00000   1.000
    H113    H    0.38910   0.93840   0.00000   1.000
    C204    C    0.45110   0.96540   0.00000   1.000
    H114    H    0.46450   0.93700   0.00000   1.000
    C205    C    0.59442   0.03488   0.00000   1.000
    H115    H    0.61090   0.06160   0.00000   1.000
    C206    C    0.54890   0.03460   0.00000   1.000
    H116    H    0.53550   0.06300   0.00000   1.000
    C207    C    0.03488   0.00000   0.59442   1.000
    H117    H    0.06160   0.00000   0.61090   1.000
    C208    C    0.03460   0.00000   0.54890   1.000
    H118    H    0.06300   0.00000   0.53550   1.000
    C209    C    0.96512   0.00000   0.40558   1.000
    H119    H    0.93840   0.00000   0.38910   1.000
    C210    C    0.96540   0.00000   0.45110   1.000
    H120    H    0.93700   0.00000   0.46450   1.000
    C211    C    0.96512   0.00000   0.59442   1.000
    H121    H    0.93840   0.00000   0.61090   1.000
    C212    C    0.96540   0.00000   0.54890   1.000
    H122    H    0.93700   0.00000   0.53550   1.000
    C213    C    0.03488   0.00000   0.40558   1.000
    H123    H    0.06160   0.00000   0.38910   1.000
    C214    C    0.03460   0.00000   0.45110   1.000
    H124    H    0.06300   0.00000   0.46450   1.000
    C215    C    0.00000   0.40558   0.96512   1.000
    H125    H    0.00000   0.38910   0.93840   1.000
    C216    C    0.00000   0.45110   0.96540   1.000
    H126    H    0.00000   0.46450   0.93700   1.000
    C217    C    0.00000   0.59442   0.03488   1.000
    H127    H    0.00000   0.61090   0.06160   1.000
    C218    C    0.00000   0.54890   0.03460   1.000
    H128    H    0.00000   0.53550   0.06300   1.000
    C219    C    0.00000   0.40558   0.03488   1.000
    H129    H    0.00000   0.38910   0.06160   1.000
    C220    C    0.00000   0.45110   0.03460   1.000
    H130    H    0.00000   0.46450   0.06300   1.000
    C221    C    0.00000   0.59442   0.96512   1.000
    H131    H    0.00000   0.61090   0.93840   1.000
    C222    C    0.00000   0.54890   0.96540   1.000
    H132    H    0.00000   0.53550   0.93700   1.000
    Cu13    Cu   0.50000   0.72846   0.50000   1.000
    Cu14    Cu   0.50000   0.81419   0.50000   1.000
    N19     N    0.50000   0.88297   0.50000   1.000
    C223    C    0.50000   0.97579   0.50000   1.000
    Cu15    Cu   0.50000   0.27154   0.50000   1.000
    Cu16    Cu   0.50000   0.18581   0.50000   1.000
    N20     N    0.50000   0.11703   0.50000   1.000
    C224    C    0.50000   0.02421   0.50000   1.000
    Cu17    Cu   0.50000   0.50000   0.72846   1.000
    Cu18    Cu   0.50000   0.50000   0.81419   1.000
    N21     N    0.50000   0.50000   0.88297   1.000
    C225    C    0.50000   0.50000   0.97579   1.000
    Cu19    Cu   0.50000   0.50000   0.27154   1.000
    Cu20    Cu   0.50000   0.50000   0.18581   1.000
    N22     N    0.50000   0.50000   0.11703   1.000
    C226    C    0.50000   0.50000   0.02421   1.000
    Cu21    Cu   0.72846   0.50000   0.50000   1.000
    Cu22    Cu   0.81419   0.50000   0.50000   1.000
    N23     N    0.88297   0.50000   0.50000   1.000
    C227    C    0.97579   0.50000   0.50000   1.000
    Cu23    Cu   0.27154   0.50000   0.50000   1.000
    Cu24    Cu   0.18581   0.50000   0.50000   1.000
    N24     N    0.11703   0.50000   0.50000   1.000
    C228    C    0.02421   0.50000   0.50000   1.000
    N25     N    0.50000   0.76545   0.76545   1.000
    H133    H    0.50000   0.78630   0.78630   1.000
    N26     N    0.50000   0.23455   0.76545   1.000
    H134    H    0.50000   0.21370   0.78630   1.000
    N27     N    0.50000   0.76545   0.23455   1.000
    H135    H    0.50000   0.78630   0.21370   1.000
    N28     N    0.50000   0.23455   0.23455   1.000
    H136    H    0.50000   0.21370   0.21370   1.000
    N29     N    0.76545   0.50000   0.76545   1.000
    H137    H    0.78630   0.50000   0.78630   1.000
    N30     N    0.76545   0.50000   0.23455   1.000
    H138    H    0.78630   0.50000   0.21370   1.000
    N31     N    0.23455   0.50000   0.76545   1.000
    H139    H    0.21370   0.50000   0.78630   1.000
    N32     N    0.23455   0.50000   0.23455   1.000
    H140    H    0.21370   0.50000   0.21370   1.000
    N33     N    0.76545   0.76545   0.50000   1.000
    H141    H    0.78630   0.78630   0.50000   1.000
    N34     N    0.23455   0.76545   0.50000   1.000
    H142    H    0.21370   0.78630   0.50000   1.000
    N35     N    0.76545   0.23455   0.50000   1.000
    H143    H    0.78630   0.21370   0.50000   1.000
    N36     N    0.23455   0.23455   0.50000   1.000
    H144    H    0.21370   0.21370   0.50000   1.000
    C229    C    0.50000   0.77237   0.58083   1.000
    C230    C    0.50000   0.77034   0.62815   1.000
    C231    C    0.50000   0.73141   0.65356   1.000
    H145    H    0.50000   0.70420   0.63780   1.000
    C232    C    0.50000   0.73212   0.69914   1.000
    C233    C    0.50000   0.77335   0.72407   1.000
    C234    C    0.50000   0.80904   0.70069   1.000
    H146    H    0.50000   0.83600   0.71680   1.000
    C235    C    0.50000   0.81141   0.65539   1.000
    H147    H    0.50000   0.83900   0.64030   1.000
    O49     O    0.50000   0.73485   0.56444   1.000
    O50     O    0.50000   0.80861   0.56278   1.000
    C236    C    0.50000   0.22763   0.58083   1.000
    C237    C    0.50000   0.22966   0.62815   1.000
    C238    C    0.50000   0.26859   0.65356   1.000
    H148    H    0.50000   0.29580   0.63780   1.000
    C239    C    0.50000   0.26788   0.69914   1.000
    C240    C    0.50000   0.22665   0.72407   1.000
    C241    C    0.50000   0.19096   0.70069   1.000
    H149    H    0.50000   0.16400   0.71680   1.000
    C242    C    0.50000   0.18859   0.65539   1.000
    H150    H    0.50000   0.16100   0.64030   1.000
    O51     O    0.50000   0.26515   0.56444   1.000
    O52     O    0.50000   0.19139   0.56278   1.000
    C243    C    0.50000   0.77237   0.41917   1.000
    C244    C    0.50000   0.77034   0.37185   1.000
    C245    C    0.50000   0.73141   0.34644   1.000
    H151    H    0.50000   0.70420   0.36220   1.000
    C246    C    0.50000   0.73212   0.30086   1.000
    C247    C    0.50000   0.77335   0.27593   1.000
    C248    C    0.50000   0.80904   0.29931   1.000
    H152    H    0.50000   0.83600   0.28320   1.000
    C249    C    0.50000   0.81141   0.34461   1.000
    H153    H    0.50000   0.83900   0.35970   1.000
    O53     O    0.50000   0.73485   0.43556   1.000
    O54     O    0.50000   0.80861   0.43722   1.000
    C250    C    0.50000   0.22763   0.41917   1.000
    C251    C    0.50000   0.22966   0.37185   1.000
    C252    C    0.50000   0.26859   0.34644   1.000
    H154    H    0.50000   0.29580   0.36220   1.000
    C253    C    0.50000   0.26788   0.30086   1.000
    C254    C    0.50000   0.22665   0.27593   1.000
    C255    C    0.50000   0.19096   0.29931   1.000
    H155    H    0.50000   0.16400   0.28320   1.000
    C256    C    0.50000   0.18859   0.34461   1.000
    H156    H    0.50000   0.16100   0.35970   1.000
    O55     O    0.50000   0.26515   0.43556   1.000
    O56     O    0.50000   0.19139   0.43722   1.000
    C257    C    0.58083   0.50000   0.77237   1.000
    C258    C    0.62815   0.50000   0.77034   1.000
    C259    C    0.65356   0.50000   0.73141   1.000
    H157    H    0.63780   0.50000   0.70420   1.000
    C260    C    0.69914   0.50000   0.73212   1.000
    C261    C    0.72407   0.50000   0.77335   1.000
    C262    C    0.70069   0.50000   0.80904   1.000
    H158    H    0.71680   0.50000   0.83600   1.000
    C263    C    0.65539   0.50000   0.81141   1.000
    H159    H    0.64030   0.50000   0.83900   1.000
    O57     O    0.56444   0.50000   0.73485   1.000
    O58     O    0.56278   0.50000   0.80861   1.000
    C264    C    0.58083   0.50000   0.22763   1.000
    C265    C    0.62815   0.50000   0.22966   1.000
    C266    C    0.65356   0.50000   0.26859   1.000
    H160    H    0.63780   0.50000   0.29580   1.000
    C267    C    0.69914   0.50000   0.26788   1.000
    C268    C    0.72407   0.50000   0.22665   1.000
    C269    C    0.70069   0.50000   0.19096   1.000
    H161    H    0.71680   0.50000   0.16400   1.000
    C270    C    0.65539   0.50000   0.18859   1.000
    H162    H    0.64030   0.50000   0.16100   1.000
    O59     O    0.56444   0.50000   0.26515   1.000
    O60     O    0.56278   0.50000   0.19139   1.000
    C271    C    0.41917   0.50000   0.77237   1.000
    C272    C    0.37185   0.50000   0.77034   1.000
    C273    C    0.34644   0.50000   0.73141   1.000
    H163    H    0.36220   0.50000   0.70420   1.000
    C274    C    0.30086   0.50000   0.73212   1.000
    C275    C    0.27593   0.50000   0.77335   1.000
    C276    C    0.29931   0.50000   0.80904   1.000
    H164    H    0.28320   0.50000   0.83600   1.000
    C277    C    0.34461   0.50000   0.81141   1.000
    H165    H    0.35970   0.50000   0.83900   1.000
    O61     O    0.43556   0.50000   0.73485   1.000
    O62     O    0.43722   0.50000   0.80861   1.000
    C278    C    0.41917   0.50000   0.22763   1.000
    C279    C    0.37185   0.50000   0.22966   1.000
    C280    C    0.34644   0.50000   0.26859   1.000
    H166    H    0.36220   0.50000   0.29580   1.000
    C281    C    0.30086   0.50000   0.26788   1.000
    C282    C    0.27593   0.50000   0.22665   1.000
    C283    C    0.29931   0.50000   0.19096   1.000
    H167    H    0.28320   0.50000   0.16400   1.000
    C284    C    0.34461   0.50000   0.18859   1.000
    H168    H    0.35970   0.50000   0.16100   1.000
    O63     O    0.43556   0.50000   0.26515   1.000
    O64     O    0.43722   0.50000   0.19139   1.000
    C285    C    0.77237   0.58083   0.50000   1.000
    C286    C    0.77034   0.62815   0.50000   1.000
    C287    C    0.73141   0.65356   0.50000   1.000
    H169    H    0.70420   0.63780   0.50000   1.000
    C288    C    0.73212   0.69914   0.50000   1.000
    C289    C    0.77335   0.72407   0.50000   1.000
    C290    C    0.80904   0.70069   0.50000   1.000
    H170    H    0.83600   0.71680   0.50000   1.000
    C291    C    0.81141   0.65539   0.50000   1.000
    H171    H    0.83900   0.64030   0.50000   1.000
    O65     O    0.73485   0.56444   0.50000   1.000
    O66     O    0.80861   0.56278   0.50000   1.000
    C292    C    0.22763   0.58083   0.50000   1.000
    C293    C    0.22966   0.62815   0.50000   1.000
    C294    C    0.26859   0.65356   0.50000   1.000
    H172    H    0.29580   0.63780   0.50000   1.000
    C295    C    0.26788   0.69914   0.50000   1.000
    C296    C    0.22665   0.72407   0.50000   1.000
    C297    C    0.19096   0.70069   0.50000   1.000
    H173    H    0.16400   0.71680   0.50000   1.000
    C298    C    0.18859   0.65539   0.50000   1.000
    H174    H    0.16100   0.64030   0.50000   1.000
    O67     O    0.26515   0.56444   0.50000   1.000
    O68     O    0.19139   0.56278   0.50000   1.000
    C299    C    0.77237   0.41917   0.50000   1.000
    C300    C    0.77034   0.37185   0.50000   1.000
    C301    C    0.73141   0.34644   0.50000   1.000
    H175    H    0.70420   0.36220   0.50000   1.000
    C302    C    0.73212   0.30086   0.50000   1.000
    C303    C    0.77335   0.27593   0.50000   1.000
    C304    C    0.80904   0.29931   0.50000   1.000
    H176    H    0.83600   0.28320   0.50000   1.000
    C305    C    0.81141   0.34461   0.50000   1.000
    H177    H    0.83900   0.35970   0.50000   1.000
    O69     O    0.73485   0.43556   0.50000   1.000
    O70     O    0.80861   0.43722   0.50000   1.000
    C306    C    0.22763   0.41917   0.50000   1.000
    C307    C    0.22966   0.37185   0.50000   1.000
    C308    C    0.26859   0.34644   0.50000   1.000
    H178    H    0.29580   0.36220   0.50000   1.000
    C309    C    0.26788   0.30086   0.50000   1.000
    C310    C    0.22665   0.27593   0.50000   1.000
    C311    C    0.19096   0.29931   0.50000   1.000
    H179    H    0.16400   0.28320   0.50000   1.000
    C312    C    0.18859   0.34461   0.50000   1.000
    H180    H    0.16100   0.35970   0.50000   1.000
    O71     O    0.26515   0.43556   0.50000   1.000
    O72     O    0.19139   0.43722   0.50000   1.000
    C313    C    0.77237   0.50000   0.41917   1.000
    C314    C    0.77034   0.50000   0.37185   1.000
    C315    C    0.73141   0.50000   0.34644   1.000
    H181    H    0.70420   0.50000   0.36220   1.000
    C316    C    0.73212   0.50000   0.30086   1.000
    C317    C    0.77335   0.50000   0.27593   1.000
    C318    C    0.80904   0.50000   0.29931   1.000
    H182    H    0.83600   0.50000   0.28320   1.000
    C319    C    0.81141   0.50000   0.34461   1.000
    H183    H    0.83900   0.50000   0.35970   1.000
    O73     O    0.73485   0.50000   0.43556   1.000
    O74     O    0.80861   0.50000   0.43722   1.000
    C320    C    0.22763   0.50000   0.41917   1.000
    C321    C    0.22966   0.50000   0.37185   1.000
    C322    C    0.26859   0.50000   0.34644   1.000
    H184    H    0.29580   0.50000   0.36220   1.000
    C323    C    0.26788   0.50000   0.30086   1.000
    C324    C    0.22665   0.50000   0.27593   1.000
    C325    C    0.19096   0.50000   0.29931   1.000
    H185    H    0.16400   0.50000   0.28320   1.000
    C326    C    0.18859   0.50000   0.34461   1.000
    H186    H    0.16100   0.50000   0.35970   1.000
    O75     O    0.26515   0.50000   0.43556   1.000
    O76     O    0.19139   0.50000   0.43722   1.000
    C327    C    0.77237   0.50000   0.58083   1.000
    C328    C    0.77034   0.50000   0.62815   1.000
    C329    C    0.73141   0.50000   0.65356   1.000
    H187    H    0.70420   0.50000   0.63780   1.000
    C330    C    0.73212   0.50000   0.69914   1.000
    C331    C    0.77335   0.50000   0.72407   1.000
    C332    C    0.80904   0.50000   0.70069   1.000
    H188    H    0.83600   0.50000   0.71680   1.000
    C333    C    0.81141   0.50000   0.65539   1.000
    H189    H    0.83900   0.50000   0.64030   1.000
    O77     O    0.73485   0.50000   0.56444   1.000
    O78     O    0.80861   0.50000   0.56278   1.000
    C334    C    0.22763   0.50000   0.58083   1.000
    C335    C    0.22966   0.50000   0.62815   1.000
    C336    C    0.26859   0.50000   0.65356   1.000
    H190    H    0.29580   0.50000   0.63780   1.000
    C337    C    0.26788   0.50000   0.69914   1.000
    C338    C    0.22665   0.50000   0.72407   1.000
    C339    C    0.19096   0.50000   0.70069   1.000
    H191    H    0.16400   0.50000   0.71680   1.000
    C340    C    0.18859   0.50000   0.65539   1.000
    H192    H    0.16100   0.50000   0.64030   1.000
    O79     O    0.26515   0.50000   0.56444   1.000
    O80     O    0.19139   0.50000   0.56278   1.000
    C341    C    0.50000   0.58083   0.22763   1.000
    C342    C    0.50000   0.62815   0.22966   1.000
    C343    C    0.50000   0.65356   0.26859   1.000
    H193    H    0.50000   0.63780   0.29580   1.000
    C344    C    0.50000   0.69914   0.26788   1.000
    C345    C    0.50000   0.72407   0.22665   1.000
    C346    C    0.50000   0.70069   0.19096   1.000
    H194    H    0.50000   0.71680   0.16400   1.000
    C347    C    0.50000   0.65539   0.18859   1.000
    H195    H    0.50000   0.64030   0.16100   1.000
    O81     O    0.50000   0.56444   0.26515   1.000
    O82     O    0.50000   0.56278   0.19139   1.000
    C348    C    0.50000   0.58083   0.77237   1.000
    C349    C    0.50000   0.62815   0.77034   1.000
    C350    C    0.50000   0.65356   0.73141   1.000
    H196    H    0.50000   0.63780   0.70420   1.000
    C351    C    0.50000   0.69914   0.73212   1.000
    C352    C    0.50000   0.72407   0.77335   1.000
    C353    C    0.50000   0.70069   0.80904   1.000
    H197    H    0.50000   0.71680   0.83600   1.000
    C354    C    0.50000   0.65539   0.81141   1.000
    H198    H    0.50000   0.64030   0.83900   1.000
    O83     O    0.50000   0.56444   0.73485   1.000
    O84     O    0.50000   0.56278   0.80861   1.000
    C355    C    0.50000   0.41917   0.22763   1.000
    C356    C    0.50000   0.37185   0.22966   1.000
    C357    C    0.50000   0.34644   0.26859   1.000
    H199    H    0.50000   0.36220   0.29580   1.000
    C358    C    0.50000   0.30086   0.26788   1.000
    C359    C    0.50000   0.27593   0.22665   1.000
    C360    C    0.50000   0.29931   0.19096   1.000
    H200    H    0.50000   0.28320   0.16400   1.000
    C361    C    0.50000   0.34461   0.18859   1.000
    H201    H    0.50000   0.35970   0.16100   1.000
    O85     O    0.50000   0.43556   0.26515   1.000
    O86     O    0.50000   0.43722   0.19139   1.000
    C362    C    0.50000   0.41917   0.77237   1.000
    C363    C    0.50000   0.37185   0.77034   1.000
    C364    C    0.50000   0.34644   0.73141   1.000
    H202    H    0.50000   0.36220   0.70420   1.000
    C365    C    0.50000   0.30086   0.73212   1.000
    C366    C    0.50000   0.27593   0.77335   1.000
    C367    C    0.50000   0.29931   0.80904   1.000
    H203    H    0.50000   0.28320   0.83600   1.000
    C368    C    0.50000   0.34461   0.81141   1.000
    H204    H    0.50000   0.35970   0.83900   1.000
    O87     O    0.50000   0.43556   0.73485   1.000
    O88     O    0.50000   0.43722   0.80861   1.000
    C369    C    0.58083   0.77237   0.50000   1.000
    C370    C    0.62815   0.77034   0.50000   1.000
    C371    C    0.65356   0.73141   0.50000   1.000
    H205    H    0.63780   0.70420   0.50000   1.000
    C372    C    0.69914   0.73212   0.50000   1.000
    C373    C    0.72407   0.77335   0.50000   1.000
    C374    C    0.70069   0.80904   0.50000   1.000
    H206    H    0.71680   0.83600   0.50000   1.000
    C375    C    0.65539   0.81141   0.50000   1.000
    H207    H    0.64030   0.83900   0.50000   1.000
    O89     O    0.56444   0.73485   0.50000   1.000
    O90     O    0.56278   0.80861   0.50000   1.000
    C376    C    0.58083   0.22763   0.50000   1.000
    C377    C    0.62815   0.22966   0.50000   1.000
    C378    C    0.65356   0.26859   0.50000   1.000
    H208    H    0.63780   0.29580   0.50000   1.000
    C379    C    0.69914   0.26788   0.50000   1.000
    C380    C    0.72407   0.22665   0.50000   1.000
    C381    C    0.70069   0.19096   0.50000   1.000
    H209    H    0.71680   0.16400   0.50000   1.000
    C382    C    0.65539   0.18859   0.50000   1.000
    H210    H    0.64030   0.16100   0.50000   1.000
    O91     O    0.56444   0.26515   0.50000   1.000
    O92     O    0.56278   0.19139   0.50000   1.000
    C383    C    0.41917   0.77237   0.50000   1.000
    C384    C    0.37185   0.77034   0.50000   1.000
    C385    C    0.34644   0.73141   0.50000   1.000
    H211    H    0.36220   0.70420   0.50000   1.000
    C386    C    0.30086   0.73212   0.50000   1.000
    C387    C    0.27593   0.77335   0.50000   1.000
    C388    C    0.29931   0.80904   0.50000   1.000
    H212    H    0.28320   0.83600   0.50000   1.000
    C389    C    0.34461   0.81141   0.50000   1.000
    H213    H    0.35970   0.83900   0.50000   1.000
    O93     O    0.43556   0.73485   0.50000   1.000
    O94     O    0.43722   0.80861   0.50000   1.000
    C390    C    0.41917   0.22763   0.50000   1.000
    C391    C    0.37185   0.22966   0.50000   1.000
    C392    C    0.34644   0.26859   0.50000   1.000
    H214    H    0.36220   0.29580   0.50000   1.000
    C393    C    0.30086   0.26788   0.50000   1.000
    C394    C    0.27593   0.22665   0.50000   1.000
    C395    C    0.29931   0.19096   0.50000   1.000
    H215    H    0.28320   0.16400   0.50000   1.000
    C396    C    0.34461   0.18859   0.50000   1.000
    H216    H    0.35970   0.16100   0.50000   1.000
    O95     O    0.43556   0.26515   0.50000   1.000
    O96     O    0.43722   0.19139   0.50000   1.000
    C397    C    0.53488   0.90558   0.50000   1.000
    H217    H    0.56160   0.88910   0.50000   1.000
    C398    C    0.53460   0.95110   0.50000   1.000
    H218    H    0.56300   0.96450   0.50000   1.000
    C399    C    0.46512   0.09442   0.50000   1.000
    H219    H    0.43840   0.11090   0.50000   1.000
    C400    C    0.46540   0.04890   0.50000   1.000
    H220    H    0.43700   0.03550   0.50000   1.000
    C401    C    0.46512   0.90558   0.50000   1.000
    H221    H    0.43840   0.88910   0.50000   1.000
    C402    C    0.46540   0.95110   0.50000   1.000
    H222    H    0.43700   0.96450   0.50000   1.000
    C403    C    0.53488   0.09442   0.50000   1.000
    H223    H    0.56160   0.11090   0.50000   1.000
    C404    C    0.53460   0.04890   0.50000   1.000
    H224    H    0.56300   0.03550   0.50000   1.000
    C405    C    0.50000   0.53488   0.90558   1.000
    H225    H    0.50000   0.56160   0.88910   1.000
    C406    C    0.50000   0.53460   0.95110   1.000
    H226    H    0.50000   0.56300   0.96450   1.000
    C407    C    0.50000   0.46512   0.09442   1.000
    H227    H    0.50000   0.43840   0.11090   1.000
    C408    C    0.50000   0.46540   0.04890   1.000
    H228    H    0.50000   0.43700   0.03550   1.000
    C409    C    0.50000   0.46512   0.90558   1.000
    H229    H    0.50000   0.43840   0.88910   1.000
    C410    C    0.50000   0.46540   0.95110   1.000
    H230    H    0.50000   0.43700   0.96450   1.000
    C411    C    0.50000   0.53488   0.09442   1.000
    H231    H    0.50000   0.56160   0.11090   1.000
    C412    C    0.50000   0.53460   0.04890   1.000
    H232    H    0.50000   0.56300   0.03550   1.000
    C413    C    0.90558   0.50000   0.53488   1.000
    H233    H    0.88910   0.50000   0.56160   1.000
    C414    C    0.95110   0.50000   0.53460   1.000
    H234    H    0.96450   0.50000   0.56300   1.000
    C415    C    0.09442   0.50000   0.46512   1.000
    H235    H    0.11090   0.50000   0.43840   1.000
    C416    C    0.04890   0.50000   0.46540   1.000
    H236    H    0.03550   0.50000   0.43700   1.000
    C417    C    0.90558   0.50000   0.46512   1.000
    H237    H    0.88910   0.50000   0.43840   1.000
    C418    C    0.95110   0.50000   0.46540   1.000
    H238    H    0.96450   0.50000   0.43700   1.000
    C419    C    0.09442   0.50000   0.53488   1.000
    H239    H    0.11090   0.50000   0.56160   1.000
    C420    C    0.04890   0.50000   0.53460   1.000
    H240    H    0.03550   0.50000   0.56300   1.000
    C421    C    0.90558   0.53488   0.50000   1.000
    H241    H    0.88910   0.56160   0.50000   1.000
    C422    C    0.95110   0.53460   0.50000   1.000
    H242    H    0.96450   0.56300   0.50000   1.000
    C423    C    0.09442   0.46512   0.50000   1.000
    H243    H    0.11090   0.43840   0.50000   1.000
    C424    C    0.04890   0.46540   0.50000   1.000
    H244    H    0.03550   0.43700   0.50000   1.000
    C425    C    0.90558   0.46512   0.50000   1.000
    H245    H    0.88910   0.43840   0.50000   1.000
    C426    C    0.95110   0.46540   0.50000   1.000
    H246    H    0.96450   0.43700   0.50000   1.000
    C427    C    0.09442   0.53488   0.50000   1.000
    H247    H    0.11090   0.56160   0.50000   1.000
    C428    C    0.04890   0.53460   0.50000   1.000
    H248    H    0.03550   0.56300   0.50000   1.000
    C429    C    0.53488   0.50000   0.09442   1.000
    H249    H    0.56160   0.50000   0.11090   1.000
    C430    C    0.53460   0.50000   0.04890   1.000
    H250    H    0.56300   0.50000   0.03550   1.000
    C431    C    0.46512   0.50000   0.90558   1.000
    H251    H    0.43840   0.50000   0.88910   1.000
    C432    C    0.46540   0.50000   0.95110   1.000
    H252    H    0.43700   0.50000   0.96450   1.000
    C433    C    0.46512   0.50000   0.09442   1.000
    H253    H    0.43840   0.50000   0.11090   1.000
    C434    C    0.46540   0.50000   0.04890   1.000
    H254    H    0.43700   0.50000   0.03550   1.000
    C435    C    0.53488   0.50000   0.90558   1.000
    H255    H    0.56160   0.50000   0.88910   1.000
    C436    C    0.53460   0.50000   0.95110   1.000
    H256    H    0.56300   0.50000   0.96450   1.000
    C437    C    0.50000   0.90558   0.46512   1.000
    H257    H    0.50000   0.88910   0.43840   1.000
    C438    C    0.50000   0.95110   0.46540   1.000
    H258    H    0.50000   0.96450   0.43700   1.000
    C439    C    0.50000   0.09442   0.53488   1.000
    H259    H    0.50000   0.11090   0.56160   1.000
    C440    C    0.50000   0.04890   0.53460   1.000
    H260    H    0.50000   0.03550   0.56300   1.000
    C441    C    0.50000   0.90558   0.53488   1.000
    H261    H    0.50000   0.88910   0.56160   1.000
    C442    C    0.50000   0.95110   0.53460   1.000
    H262    H    0.50000   0.96450   0.56300   1.000
    C443    C    0.50000   0.09442   0.46512   1.000
    H263    H    0.50000   0.11090   0.43840   1.000
    C444    C    0.50000   0.04890   0.46540   1.000
    H264    H    0.50000   0.03550   0.43700   1.000
