# CIF file generated by openbabel 2.4.1, see http://openbabel.sf.net
data_I
_chemical_name_common 'image0'
_cell_length_a 14.521
_cell_length_b 7.7378
_cell_length_c 15.997
_cell_angle_alpha 90
_cell_angle_beta 106.4
_cell_angle_gamma 90
_space_group_name_H-M_alt 'P 1'
_space_group_name_Hall 'P 1'
loop_
    _symmetry_equiv_pos_as_xyz
    x,y,z
loop_
    _atom_site_label
    _atom_site_type_symbol
    _atom_site_fract_x
    _atom_site_fract_y
    _atom_site_fract_z
    _atom_site_occupancy
    C1      C    0.11330   0.33630   0.14228   1.000
    C2      C    0.13360   0.72110   0.89846   1.000
    C3      C    0.10540   0.36030   0.04640   1.000
    C4      C    0.12610   0.51970   0.01698   1.000
    H1      H    0.14830   0.61140   0.05710   1.000
    C5      C    0.11420   0.54540   0.92808   1.000
    C6      C    0.08220   0.41090   0.87011   1.000
    H2      H    0.07580   0.42710   0.80990   1.000
    C7      C    0.05940   0.25240   0.89971   1.000
    C8      C    0.07180   0.22520   0.98797   1.000
    H3      H    0.05750   0.11590   0.00840   1.000
    C9      C    0.30910   0.27250   0.33480   1.000
    H4      H    0.28960   0.27440   0.27290   1.000
    C10     C    0.38190   0.16260   0.37640   1.000
    H5      H    0.41230   0.09010   0.34430   1.000
    C11     C    0.40970   0.16110   0.46740   1.000
    C12     C    0.36450   0.26830   0.51150   1.000
    H6      H    0.38300   0.26990   0.57340   1.000
    C13     C    0.29150   0.37450   0.46410   1.000
    H7      H    0.26000   0.44750   0.49510   1.000
    C14     C    0.28300   0.22080   0.34450   1.000
    H8      H    0.24100   0.18280   0.29070   1.000
    C15     C    0.35860   0.11440   0.38700   1.000
    H9      H    0.36880   0.00560   0.36360   1.000
    C16     C    0.41870   0.17370   0.46540   1.000
    C17     C    0.40370   0.32970   0.49890   1.000
    H10     H    0.44490   0.36970   0.55270   1.000
    C18     C    0.32650   0.42880   0.45220   1.000
    H11     H    0.31500   0.53810   0.47440   1.000
    N1      N    0.02763   0.11460   0.83717   1.000
    H12     H    0.98710   0.15860   0.78670   1.000
    H13     H    0.99410   0.03400   0.85920   1.000
    N2      N    0.26340   0.37940   0.37850   1.000
    N3      N    0.48470   0.05290   0.51990   1.000
    N4      N    0.26690   0.37220   0.37520   1.000
    N5      N    0.50040   0.07900   0.51780   1.000
    O1      O    0.14381   0.46980   0.18959   1.000
    O2      O    0.09187   0.19700   0.16932   1.000
    O3      O    0.15426   0.84210   0.95083   1.000
    O4      O    0.12664   0.74290   0.81651   1.000
    Zn1     Zn   0.14305   0.50231   0.30977   1.000
    C19     C    0.88670   0.83630   0.35772   1.000
    C20     C    0.86640   0.22110   0.60154   1.000
    C21     C    0.89460   0.86030   0.45360   1.000
    C22     C    0.87390   0.01970   0.48302   1.000
    H14     H    0.85170   0.11140   0.44290   1.000
    C23     C    0.88580   0.04540   0.57192   1.000
    C24     C    0.91780   0.91090   0.62989   1.000
    H15     H    0.92420   0.92710   0.69010   1.000
    C25     C    0.94060   0.75240   0.60029   1.000
    C26     C    0.92820   0.72520   0.51203   1.000
    H16     H    0.94250   0.61590   0.49160   1.000
    C27     C    0.69090   0.77250   0.16520   1.000
    H17     H    0.71040   0.77440   0.22710   1.000
    C28     C    0.61810   0.66260   0.12360   1.000
    H18     H    0.58770   0.59010   0.15570   1.000
    C29     C    0.59030   0.66110   0.03260   1.000
    C30     C    0.63550   0.76830   0.98850   1.000
    H19     H    0.61700   0.76990   0.92660   1.000
    C31     C    0.70850   0.87450   0.03590   1.000
    H20     H    0.74000   0.94750   0.00490   1.000
    C32     C    0.71700   0.72080   0.15550   1.000
    H21     H    0.75900   0.68280   0.20930   1.000
    C33     C    0.64140   0.61440   0.11300   1.000
    H22     H    0.63120   0.50560   0.13640   1.000
    C34     C    0.58130   0.67370   0.03460   1.000
    C35     C    0.59630   0.82970   0.00110   1.000
    H23     H    0.55510   0.86970   0.94730   1.000
    C36     C    0.67350   0.92880   0.04780   1.000
    H24     H    0.68500   0.03810   0.02560   1.000
    N6      N    0.97237   0.61460   0.66283   1.000
    H25     H    0.01290   0.65860   0.71330   1.000
    H26     H    0.00590   0.53400   0.64080   1.000
    N7      N    0.73660   0.87940   0.12150   1.000
    N8      N    0.51530   0.55290   0.98010   1.000
    N9      N    0.73310   0.87220   0.12480   1.000
    N10     N    0.49960   0.57900   0.98220   1.000
    O5      O    0.85619   0.96980   0.31041   1.000
    O6      O    0.90813   0.69700   0.33068   1.000
    O7      O    0.84574   0.34210   0.54917   1.000
    O8      O    0.87336   0.24290   0.68349   1.000
    Zn2     Zn   0.85695   0.00231   0.19023   1.000
    C37     C    0.88670   0.66370   0.85772   1.000
    C38     C    0.86640   0.27890   0.10154   1.000
    C39     C    0.89460   0.63970   0.95360   1.000
    C40     C    0.87390   0.48030   0.98302   1.000
    H27     H    0.85170   0.38860   0.94290   1.000
    C41     C    0.88580   0.45460   0.07192   1.000
    C42     C    0.91780   0.58910   0.12989   1.000
    H28     H    0.92420   0.57290   0.19010   1.000
    C43     C    0.94060   0.74760   0.10029   1.000
    C44     C    0.92820   0.77480   0.01203   1.000
    H29     H    0.94250   0.88410   0.99160   1.000
    C45     C    0.69090   0.72750   0.66520   1.000
    H30     H    0.71040   0.72560   0.72710   1.000
    C46     C    0.61810   0.83740   0.62360   1.000
    H31     H    0.58770   0.90990   0.65570   1.000
    C47     C    0.59030   0.83890   0.53260   1.000
    C48     C    0.63550   0.73170   0.48850   1.000
    H32     H    0.61700   0.73010   0.42660   1.000
    C49     C    0.70850   0.62550   0.53590   1.000
    H33     H    0.74000   0.55250   0.50490   1.000
    C50     C    0.71700   0.77920   0.65550   1.000
    H34     H    0.75900   0.81720   0.70930   1.000
    C51     C    0.64140   0.88560   0.61300   1.000
    H35     H    0.63120   0.99440   0.63640   1.000
    C52     C    0.58130   0.82630   0.53460   1.000
    C53     C    0.59630   0.67030   0.50110   1.000
    H36     H    0.55510   0.63030   0.44730   1.000
    C54     C    0.67350   0.57120   0.54780   1.000
    H37     H    0.68500   0.46190   0.52560   1.000
    N11     N    0.97237   0.88540   0.16283   1.000
    H38     H    0.01290   0.84140   0.21330   1.000
    H39     H    0.00590   0.96600   0.14080   1.000
    N12     N    0.73660   0.62060   0.62150   1.000
    N13     N    0.51530   0.94710   0.48010   1.000
    N14     N    0.73310   0.62780   0.62480   1.000
    N15     N    0.49960   0.92100   0.48220   1.000
    O9      O    0.85619   0.53020   0.81041   1.000
    O10     O    0.90813   0.80300   0.83068   1.000
    O11     O    0.84574   0.15790   0.04917   1.000
    O12     O    0.87336   0.25710   0.18349   1.000
    Zn3     Zn   0.85695   0.49769   0.69023   1.000
    C55     C    0.11330   0.16370   0.64228   1.000
    C56     C    0.13360   0.77890   0.39846   1.000
    C57     C    0.10540   0.13970   0.54640   1.000
    C58     C    0.12610   0.98030   0.51698   1.000
    H40     H    0.14830   0.88860   0.55710   1.000
    C59     C    0.11420   0.95460   0.42808   1.000
    C60     C    0.08220   0.08910   0.37011   1.000
    H41     H    0.07580   0.07290   0.30990   1.000
    C61     C    0.05940   0.24760   0.39971   1.000
    C62     C    0.07180   0.27480   0.48797   1.000
    H42     H    0.05750   0.38410   0.50840   1.000
    C63     C    0.30910   0.22750   0.83480   1.000
    H43     H    0.28960   0.22560   0.77290   1.000
    C64     C    0.38190   0.33740   0.87640   1.000
    H44     H    0.41230   0.40990   0.84430   1.000
    C65     C    0.40970   0.33890   0.96740   1.000
    C66     C    0.36450   0.23170   0.01150   1.000
    H45     H    0.38300   0.23010   0.07340   1.000
    C67     C    0.29150   0.12550   0.96410   1.000
    H46     H    0.26000   0.05250   0.99510   1.000
    C68     C    0.28300   0.27920   0.84450   1.000
    H47     H    0.24100   0.31720   0.79070   1.000
    C69     C    0.35860   0.38560   0.88700   1.000
    H48     H    0.36880   0.49440   0.86360   1.000
    C70     C    0.41870   0.32630   0.96540   1.000
    C71     C    0.40370   0.17030   0.99890   1.000
    H49     H    0.44490   0.13030   0.05270   1.000
    C72     C    0.32650   0.07120   0.95220   1.000
    H50     H    0.31500   0.96190   0.97440   1.000
    N16     N    0.02763   0.38540   0.33717   1.000
    H51     H    0.98710   0.34140   0.28670   1.000
    H52     H    0.99410   0.46600   0.35920   1.000
    N17     N    0.26340   0.12060   0.87850   1.000
    N18     N    0.48470   0.44710   0.01990   1.000
    N19     N    0.26690   0.12780   0.87520   1.000
    N20     N    0.50040   0.42100   0.01780   1.000
    O13     O    0.14381   0.03020   0.68959   1.000
    O14     O    0.09187   0.30300   0.66932   1.000
    O15     O    0.15426   0.65790   0.45083   1.000
    O16     O    0.12664   0.75710   0.31651   1.000
    Zn4     Zn   0.14305   0.99769   0.80977   1.000
