data_functionalizedCrystal
_audit_creation_method	'EQeq! by Chris Wilmer'
_symmetry_space_group_name_H-M	'P1'
_symmetry_Int_Tables_number	1
_symmetry_cell_setting	triclinic
loop_
_symmetry_equiv_pos_as_xyz
  x,y,z
_cell_length_a	33.0028
_cell_length_b	33.0028
_cell_length_c	33.4823
_cell_angle_alpha	90
_cell_angle_beta	90
_cell_angle_gamma	90
loop_
_atom_site_label
_atom_site_type_symbol
_atom_site_fract_x
_atom_site_fract_y
_atom_site_fract_z
_atom_site_charge
Mof_O 	O 	0.32349	0.04138	0.45857	-0.411
Mof_O 	O 	0.25557	0.04112	0.45896	-0.413
Mof_C 	C 	0.28943	0.05262	0.44593	0.366
Mof_C 	C 	0.28918	0.08122	0.4118	-0.113
Mof_C 	C 	0.32484	0.09521	0.39524	0.039
Mof_H 	H 	0.35	0.0865	0.406	0.03
Mof_C 	C 	0.32429	0.12162	0.36329	-0.1
Mof_H 	H 	0.3491	0.1307	0.352	0.063
Mof_C 	C 	0.28782	0.1351	0.34744	0.036
Mof_C 	C 	0.25215	0.12105	0.36444	-0.098
Mof_H 	H 	0.2269	0.1301	0.354	0.063
Mof_C 	C 	0.25243	0.0944	0.396	0.037
Mof_H 	H 	0.2276	0.085	0.407	0.033
Mof_C 	C 	0.28656	0.16388	0.31366	0.05
Mof_C 	C 	0.31346	0.16185	0.28239	-0.13
Mof_H 	H 	0.3341	0.1418	0.2826	0.073
Mof_C 	C 	0.25312	0.2217	0.28245	0.03
Mof_C 	C 	0.25707	0.19403	0.3133	-0.102
Mof_H 	H 	0.2388	0.1957	0.3352	0.064
Mof_C 	C 	0.4133	0.9899	0.4676	-0.072
Mof_H 	H 	0.3992	0.9833	0.4445	0.051
Mof_C 	C 	0.45522	0.9894	0.4668	-0.013
Mof_H 	H 	0.4687	0.9818	0.4437	0.023
Mof_C 	C 	0.4147	0.0297	0.4849	0.06
Mof_H 	H 	0.4008	0.0486	0.4701	0.008
Mof_C 	C 	0.4561	0.0319	0.4857	-0.093
Mof_H 	H 	0.4696	0.053	0.4737	0.052
Mof_O 	O 	0.82349	0.54138	0.95857	-0.399
Mof_O 	O 	0.75557	0.54112	0.95896	-0.4
Mof_C 	C 	0.78943	0.55262	0.94593	0.364
Mof_C 	C 	0.78918	0.58122	0.9118	-0.107
Mof_C 	C 	0.82484	0.59521	0.89524	0.039
Mof_H 	H 	0.85	0.5865	0.906	0.033
Mof_C 	C 	0.82429	0.62162	0.86329	-0.097
Mof_H 	H 	0.8491	0.6307	0.852	0.064
Mof_C 	C 	0.78782	0.6351	0.84744	0.035
Mof_C 	C 	0.75215	0.62105	0.86444	-0.096
Mof_H 	H 	0.7269	0.6301	0.854	0.063
Mof_C 	C 	0.75243	0.5944	0.896	0.036
Mof_H 	H 	0.7276	0.585	0.907	0.037
Mof_C 	C 	0.78656	0.66388	0.81366	0.052
Mof_C 	C 	0.81346	0.66185	0.78239	-0.132
Mof_H 	H 	0.8341	0.6418	0.7826	0.075
Mof_C 	C 	0.75312	0.7217	0.78245	0.031
Mof_C 	C 	0.75707	0.69403	0.8133	-0.103
Mof_H 	H 	0.7388	0.6957	0.8352	0.065
Mof_C 	C 	0.9133	0.4899	0.9676	-0.02
Mof_H 	H 	0.8992	0.4833	0.9445	0.029
Mof_C 	C 	0.95522	0.4894	0.9668	0.043
Mof_H 	H 	0.9687	0.4818	0.9437	0.004
Mof_C 	C 	0.9147	0.5297	0.9849	0.017
Mof_H 	H 	0.9008	0.5486	0.9701	0.027
Mof_C 	C 	0.9561	0.5319	0.9857	-0.152
Mof_H 	H 	0.9696	0.553	0.9737	0.079
Mof_O 	O 	0.67651	0.95862	0.45857	-0.405
Mof_O 	O 	0.74443	0.95888	0.45896	-0.405
Mof_C 	C 	0.71057	0.94738	0.44593	0.364
Mof_C 	C 	0.71082	0.91878	0.4118	-0.11
Mof_C 	C 	0.67516	0.90479	0.39524	0.038
Mof_H 	H 	0.65	0.9135	0.406	0.03
Mof_C 	C 	0.67571	0.87838	0.36329	-0.099
Mof_H 	H 	0.6509	0.8693	0.352	0.063
Mof_C 	C 	0.71218	0.8649	0.34744	0.035
Mof_C 	C 	0.74785	0.87895	0.36444	-0.097
Mof_H 	H 	0.7731	0.8699	0.354	0.063
Mof_C 	C 	0.74757	0.9056	0.396	0.036
Mof_H 	H 	0.7724	0.915	0.407	0.036
Mof_C 	C 	0.71344	0.83612	0.31366	0.051
Mof_C 	C 	0.68654	0.83815	0.28239	-0.132
Mof_H 	H 	0.6659	0.8582	0.2826	0.074
Mof_C 	C 	0.74688	0.7783	0.28245	0.03
Mof_C 	C 	0.74293	0.80597	0.3133	-0.103
Mof_H 	H 	0.7612	0.8043	0.3352	0.064
Mof_C 	C 	0.5867	0.0101	0.4676	-0.029
Mof_H 	H 	0.6008	0.0167	0.4445	0.028
Mof_C 	C 	0.54478	0.0106	0.4668	0.034
Mof_H 	H 	0.5313	0.0182	0.4437	0
Mof_C 	C 	0.5853	0.9703	0.4849	0.081
Mof_H 	H 	0.5992	0.9514	0.4701	0.002
Mof_C 	C 	0.5439	0.9681	0.4857	-0.073
Mof_H 	H 	0.5304	0.947	0.4737	0.045
Mof_O 	O 	0.17651	0.45862	0.95857	-0.401
Mof_O 	O 	0.24443	0.45888	0.95896	-0.401
Mof_C 	C 	0.21057	0.44738	0.94593	0.363
Mof_C 	C 	0.21082	0.41878	0.9118	-0.109
Mof_C 	C 	0.17516	0.40479	0.89524	0.037
Mof_H 	H 	0.15	0.4135	0.906	0.031
Mof_C 	C 	0.17571	0.37838	0.86329	-0.098
Mof_H 	H 	0.1509	0.3693	0.852	0.062
Mof_C 	C 	0.21218	0.3649	0.84744	0.034
Mof_C 	C 	0.24785	0.37895	0.86444	-0.096
Mof_H 	H 	0.2731	0.3699	0.854	0.063
Mof_C 	C 	0.24757	0.4056	0.896	0.035
Mof_H 	H 	0.2724	0.415	0.907	0.037
Mof_C 	C 	0.21344	0.33612	0.81366	0.051
Mof_C 	C 	0.18654	0.33815	0.78239	-0.132
Mof_H 	H 	0.1659	0.3582	0.7826	0.073
Mof_C 	C 	0.24688	0.2783	0.78245	0.03
Mof_C 	C 	0.24293	0.30597	0.8133	-0.103
Mof_H 	H 	0.2612	0.3043	0.8352	0.064
Mof_C 	C 	0.0867	0.5101	0.9676	-0.015
Mof_H 	H 	0.1008	0.5167	0.9445	0.027
Mof_C 	C 	0.04478	0.5106	0.9668	0.045
Mof_H 	H 	0.0313	0.5182	0.9437	-0.002
Mof_C 	C 	0.0853	0.4703	0.9849	0.006
Mof_H 	H 	0.0992	0.4514	0.9701	0.029
Mof_C 	C 	0.0439	0.4681	0.9857	-0.136
Mof_H 	H 	0.0304	0.447	0.9737	0.067
Mof_O 	O 	0.95862	0.32349	0.45857	-0.405
Mof_O 	O 	0.95888	0.25557	0.45896	-0.406
Mof_C 	C 	0.94738	0.28943	0.44593	0.364
Mof_C 	C 	0.91878	0.28918	0.4118	-0.11
Mof_C 	C 	0.90479	0.32484	0.39524	0.038
Mof_H 	H 	0.9135	0.35	0.406	0.03
Mof_C 	C 	0.87838	0.32429	0.36329	-0.099
Mof_H 	H 	0.8693	0.3491	0.352	0.063
Mof_C 	C 	0.8649	0.28782	0.34744	0.035
Mof_C 	C 	0.87895	0.25215	0.36444	-0.097
Mof_H 	H 	0.8699	0.2269	0.354	0.063
Mof_C 	C 	0.9056	0.25243	0.396	0.036
Mof_H 	H 	0.915	0.2276	0.407	0.035
Mof_C 	C 	0.83612	0.28656	0.31366	0.05
Mof_C 	C 	0.83815	0.31346	0.28239	-0.132
Mof_H 	H 	0.8582	0.3341	0.2826	0.074
Mof_C 	C 	0.7783	0.25312	0.28245	0.03
Mof_C 	C 	0.80597	0.25707	0.3133	-0.103
Mof_H 	H 	0.8043	0.2388	0.3352	0.063
Mof_C 	C 	0.0101	0.4133	0.4676	-0.029
Mof_H 	H 	0.0167	0.3992	0.4445	0.028
Mof_C 	C 	0.0106	0.45522	0.4668	0.034
Mof_H 	H 	0.0182	0.4687	0.4437	0
Mof_C 	C 	0.9703	0.4147	0.4849	0.081
Mof_H 	H 	0.9514	0.4008	0.4701	0.002
Mof_C 	C 	0.9681	0.4561	0.4857	-0.073
Mof_H 	H 	0.947	0.4696	0.4737	0.045
Mof_O 	O 	0.45862	0.82349	0.95857	-0.401
Mof_O 	O 	0.45888	0.75557	0.95896	-0.401
Mof_C 	C 	0.44738	0.78943	0.94593	0.363
Mof_C 	C 	0.41878	0.78918	0.9118	-0.108
Mof_C 	C 	0.40479	0.82484	0.89524	0.038
Mof_H 	H 	0.4135	0.85	0.906	0.032
Mof_C 	C 	0.37838	0.82429	0.86329	-0.098
Mof_H 	H 	0.3693	0.8491	0.852	0.064
Mof_C 	C 	0.3649	0.78782	0.84744	0.035
Mof_C 	C 	0.37895	0.75215	0.86444	-0.096
Mof_H 	H 	0.3699	0.7269	0.854	0.063
Mof_C 	C 	0.4056	0.75243	0.896	0.035
Mof_H 	H 	0.415	0.7276	0.907	0.037
Mof_C 	C 	0.33612	0.78656	0.81366	0.051
Mof_C 	C 	0.33815	0.81346	0.78239	-0.132
Mof_H 	H 	0.3582	0.8341	0.7826	0.075
Mof_C 	C 	0.2783	0.75312	0.78245	0.031
Mof_C 	C 	0.30597	0.75707	0.8133	-0.103
Mof_H 	H 	0.3043	0.7388	0.8352	0.065
Mof_C 	C 	0.5101	0.9133	0.9676	-0.02
Mof_H 	H 	0.5167	0.8992	0.9445	0.029
Mof_C 	C 	0.5106	0.95522	0.9668	0.043
Mof_H 	H 	0.5182	0.9687	0.9437	0.004
Mof_C 	C 	0.4703	0.9147	0.9849	0.017
Mof_H 	H 	0.4514	0.9008	0.9701	0.027
Mof_C 	C 	0.4681	0.9561	0.9857	-0.152
Mof_H 	H 	0.447	0.9696	0.9737	0.079
Mof_O 	O 	0.04138	0.67651	0.45857	-0.412
Mof_O 	O 	0.04112	0.74443	0.45896	-0.413
Mof_C 	C 	0.05262	0.71057	0.44593	0.365
Mof_C 	C 	0.08122	0.71082	0.4118	-0.113
Mof_C 	C 	0.09521	0.67516	0.39524	0.038
Mof_H 	H 	0.0865	0.65	0.406	0.029
Mof_C 	C 	0.12162	0.67571	0.36329	-0.101
Mof_H 	H 	0.1307	0.6509	0.352	0.062
Mof_C 	C 	0.1351	0.71218	0.34744	0.035
Mof_C 	C 	0.12105	0.74785	0.36444	-0.099
Mof_H 	H 	0.1301	0.7731	0.354	0.062
Mof_C 	C 	0.0944	0.74757	0.396	0.036
Mof_H 	H 	0.085	0.7724	0.407	0.034
Mof_C 	C 	0.16388	0.71344	0.31366	0.049
Mof_C 	C 	0.16185	0.68654	0.28239	-0.131
Mof_H 	H 	0.1418	0.6659	0.2826	0.073
Mof_C 	C 	0.2217	0.74688	0.28245	0.029
Mof_C 	C 	0.19403	0.74293	0.3133	-0.102
Mof_H 	H 	0.1957	0.7612	0.3352	0.063
Mof_C 	C 	0.9899	0.5867	0.4676	-0.073
Mof_H 	H 	0.9833	0.6008	0.4445	0.05
Mof_C 	C 	0.9894	0.54478	0.4668	-0.014
Mof_H 	H 	0.9818	0.5313	0.4437	0.022
Mof_C 	C 	0.0297	0.5853	0.4849	0.059
Mof_H 	H 	0.0486	0.5992	0.4701	0.007
Mof_C 	C 	0.0319	0.5439	0.4857	-0.094
Mof_H 	H 	0.053	0.5304	0.4737	0.051
Mof_O 	O 	0.54138	0.17651	0.95857	-0.401
Mof_O 	O 	0.54112	0.24443	0.95896	-0.401
Mof_C 	C 	0.55262	0.21057	0.94593	0.363
Mof_C 	C 	0.58122	0.21082	0.9118	-0.109
Mof_C 	C 	0.59521	0.17516	0.89524	0.037
Mof_H 	H 	0.5865	0.15	0.906	0.031
Mof_C 	C 	0.62162	0.17571	0.86329	-0.098
Mof_H 	H 	0.6307	0.1509	0.852	0.062
Mof_C 	C 	0.6351	0.21218	0.84744	0.034
Mof_C 	C 	0.62105	0.24785	0.86444	-0.096
Mof_H 	H 	0.6301	0.2731	0.854	0.063
Mof_C 	C 	0.5944	0.24757	0.896	0.035
Mof_H 	H 	0.585	0.2724	0.907	0.037
Mof_C 	C 	0.66388	0.21344	0.81366	0.051
Mof_C 	C 	0.66185	0.18654	0.78239	-0.131
Mof_H 	H 	0.6418	0.1659	0.7826	0.073
Mof_C 	C 	0.7217	0.24688	0.78245	0.03
Mof_C 	C 	0.69403	0.24293	0.8133	-0.103
Mof_H 	H 	0.6957	0.2612	0.8352	0.064
Mof_C 	C 	0.4899	0.0867	0.9676	-0.015
Mof_H 	H 	0.4833	0.1008	0.9445	0.027
Mof_C 	C 	0.4894	0.04478	0.9668	0.045
Mof_H 	H 	0.4818	0.0313	0.9437	-0.002
Mof_C 	C 	0.5297	0.0853	0.9849	0.006
Mof_H 	H 	0.5486	0.0992	0.9701	0.029
Mof_C 	C 	0.5319	0.0439	0.9857	-0.136
Mof_H 	H 	0.553	0.0304	0.9737	0.067
Mof_O 	O 	0.67651	0.04138	0.54143	-0.411
Mof_O 	O 	0.74443	0.04112	0.54104	-0.413
Mof_C 	C 	0.71057	0.05262	0.55407	0.365
Mof_C 	C 	0.71082	0.08122	0.5882	-0.113
Mof_C 	C 	0.67516	0.09521	0.60476	0.038
Mof_H 	H 	0.65	0.0865	0.594	0.029
Mof_C 	C 	0.67571	0.12162	0.63671	-0.101
Mof_H 	H 	0.6509	0.1307	0.648	0.062
Mof_C 	C 	0.71218	0.1351	0.65256	0.035
Mof_C 	C 	0.74785	0.12105	0.63556	-0.099
Mof_H 	H 	0.7731	0.1301	0.646	0.063
Mof_C 	C 	0.74757	0.0944	0.604	0.037
Mof_H 	H 	0.7724	0.085	0.593	0.034
Mof_C 	C 	0.71344	0.16388	0.68634	0.05
Mof_C 	C 	0.68654	0.16185	0.71761	-0.131
Mof_H 	H 	0.6659	0.1418	0.7174	0.073
Mof_C 	C 	0.74688	0.2217	0.71755	0.03
Mof_C 	C 	0.74293	0.19403	0.6867	-0.102
Mof_H 	H 	0.7612	0.1957	0.6648	0.063
Mof_C 	C 	0.5867	0.9899	0.5324	-0.073
Mof_H 	H 	0.6008	0.9833	0.5555	0.05
Mof_C 	C 	0.54478	0.9894	0.5332	-0.014
Mof_H 	H 	0.5313	0.9818	0.5563	0.022
Mof_C 	C 	0.5853	0.0297	0.5151	0.059
Mof_H 	H 	0.5992	0.0486	0.5299	0.007
Mof_C 	C 	0.5439	0.0319	0.5143	-0.094
Mof_H 	H 	0.5304	0.053	0.5263	0.051
Mof_O 	O 	0.17651	0.54138	0.04143	-0.414
Mof_O 	O 	0.24443	0.54112	0.04104	-0.416
Mof_C 	C 	0.21057	0.55262	0.05407	0.365
Mof_C 	C 	0.21082	0.58122	0.0882	-0.115
Mof_C 	C 	0.17516	0.59521	0.10476	0.038
Mof_H 	H 	0.15	0.5865	0.094	0.028
Mof_C 	C 	0.17571	0.62162	0.13671	-0.102
Mof_H 	H 	0.1509	0.6307	0.148	0.061
Mof_C 	C 	0.21218	0.6351	0.15256	0.035
Mof_C 	C 	0.24785	0.62105	0.13556	-0.1
Mof_H 	H 	0.2731	0.6301	0.146	0.062
Mof_C 	C 	0.24757	0.5944	0.104	0.037
Mof_H 	H 	0.2724	0.585	0.093	0.032
Mof_C 	C 	0.21344	0.66388	0.18634	0.049
Mof_C 	C 	0.18654	0.66185	0.21761	-0.131
Mof_H 	H 	0.1659	0.6418	0.2174	0.073
Mof_C 	C 	0.24688	0.7217	0.21755	0.029
Mof_C 	C 	0.24293	0.69403	0.1867	-0.102
Mof_H 	H 	0.2612	0.6957	0.1648	0.062
Mof_C 	C 	0.0867	0.4899	0.0324	-0.078
Mof_H 	H 	0.1008	0.4833	0.0555	0.049
Mof_C 	C 	0.04478	0.4894	0.0332	-0.022
Mof_H 	H 	0.0313	0.4818	0.0563	0.02
Mof_C 	C 	0.0853	0.5297	0.0151	0.121
Mof_H 	H 	0.0992	0.5486	0.0299	-0.016
Mof_C 	C 	0.0439	0.5319	0.0143	-0.007
Mof_H 	H 	0.0304	0.553	0.0263	0.016
Mof_O 	O 	0.32349	0.95862	0.54143	-0.405
Mof_O 	O 	0.25557	0.95888	0.54104	-0.406
Mof_C 	C 	0.28943	0.94738	0.55407	0.364
Mof_C 	C 	0.28918	0.91878	0.5882	-0.11
Mof_C 	C 	0.32484	0.90479	0.60476	0.038
Mof_H 	H 	0.35	0.9135	0.594	0.03
Mof_C 	C 	0.32429	0.87838	0.63671	-0.099
Mof_H 	H 	0.3491	0.8693	0.648	0.063
Mof_C 	C 	0.28782	0.8649	0.65256	0.035
Mof_C 	C 	0.25215	0.87895	0.63556	-0.097
Mof_H 	H 	0.2269	0.8699	0.646	0.063
Mof_C 	C 	0.25243	0.9056	0.604	0.036
Mof_H 	H 	0.2276	0.915	0.593	0.035
Mof_C 	C 	0.28656	0.83612	0.68634	0.051
Mof_C 	C 	0.31346	0.83815	0.71761	-0.132
Mof_H 	H 	0.3341	0.8582	0.7174	0.075
Mof_C 	C 	0.25312	0.7783	0.71755	0.03
Mof_C 	C 	0.25707	0.80597	0.6867	-0.103
Mof_H 	H 	0.2388	0.8043	0.6648	0.064
Mof_C 	C 	0.4133	0.0101	0.5324	-0.029
Mof_H 	H 	0.3992	0.0167	0.5555	0.028
Mof_C 	C 	0.45522	0.0106	0.5332	0.034
Mof_H 	H 	0.4687	0.0182	0.5563	0
Mof_C 	C 	0.4147	0.9703	0.5151	0.081
Mof_H 	H 	0.4008	0.9514	0.5299	0.002
Mof_C 	C 	0.4561	0.9681	0.5143	-0.073
Mof_H 	H 	0.4696	0.947	0.5263	0.045
Mof_O 	O 	0.82349	0.45862	0.04143	-0.413
Mof_O 	O 	0.75557	0.45888	0.04104	-0.416
Mof_C 	C 	0.78943	0.44738	0.05407	0.365
Mof_C 	C 	0.78918	0.41878	0.0882	-0.114
Mof_C 	C 	0.82484	0.40479	0.10476	0.039
Mof_H 	H 	0.85	0.4135	0.094	0.029
Mof_C 	C 	0.82429	0.37838	0.13671	-0.101
Mof_H 	H 	0.8491	0.3693	0.148	0.063
Mof_C 	C 	0.78782	0.3649	0.15256	0.035
Mof_C 	C 	0.75215	0.37895	0.13556	-0.099
Mof_H 	H 	0.7269	0.3699	0.146	0.062
Mof_C 	C 	0.75243	0.4056	0.104	0.037
Mof_H 	H 	0.7276	0.415	0.093	0.032
Mof_C 	C 	0.78656	0.33612	0.18634	0.049
Mof_C 	C 	0.81346	0.33815	0.21761	-0.132
Mof_H 	H 	0.8341	0.3582	0.2174	0.074
Mof_C 	C 	0.75312	0.2783	0.21755	0.03
Mof_C 	C 	0.75707	0.30597	0.1867	-0.103
Mof_H 	H 	0.7388	0.3043	0.1648	0.062
Mof_C 	C 	0.9133	0.5101	0.0324	-0.083
Mof_H 	H 	0.8992	0.5167	0.0555	0.051
Mof_C 	C 	0.95522	0.5106	0.0332	-0.024
Mof_H 	H 	0.9687	0.5182	0.0563	0.025
Mof_C 	C 	0.9147	0.4703	0.0151	0.132
Mof_H 	H 	0.9008	0.4514	0.0299	-0.019
Mof_C 	C 	0.9561	0.4681	0.0143	-0.023
Mof_H 	H 	0.9696	0.447	0.0263	0.027
Mof_O 	O 	0.04138	0.32349	0.54143	-0.412
Mof_O 	O 	0.04112	0.25557	0.54104	-0.413
Mof_C 	C 	0.05262	0.28943	0.55407	0.365
Mof_C 	C 	0.08122	0.28918	0.5882	-0.113
Mof_C 	C 	0.09521	0.32484	0.60476	0.038
Mof_H 	H 	0.0865	0.35	0.594	0.029
Mof_C 	C 	0.12162	0.32429	0.63671	-0.101
Mof_H 	H 	0.1307	0.3491	0.648	0.062
Mof_C 	C 	0.1351	0.28782	0.65256	0.035
Mof_C 	C 	0.12105	0.25215	0.63556	-0.099
Mof_H 	H 	0.1301	0.2269	0.646	0.062
Mof_C 	C 	0.0944	0.25243	0.604	0.037
Mof_H 	H 	0.085	0.2276	0.593	0.033
Mof_C 	C 	0.16388	0.28656	0.68634	0.049
Mof_C 	C 	0.16185	0.31346	0.71761	-0.131
Mof_H 	H 	0.1418	0.3341	0.7174	0.073
Mof_C 	C 	0.2217	0.25312	0.71755	0.03
Mof_C 	C 	0.19403	0.25707	0.6867	-0.103
Mof_H 	H 	0.1957	0.2388	0.6648	0.063
Mof_C 	C 	0.9899	0.4133	0.5324	-0.073
Mof_H 	H 	0.9833	0.3992	0.5555	0.05
Mof_C 	C 	0.9894	0.45522	0.5332	-0.014
Mof_H 	H 	0.9818	0.4687	0.5563	0.022
Mof_C 	C 	0.0297	0.4147	0.5151	0.059
Mof_H 	H 	0.0486	0.4008	0.5299	0.007
Mof_C 	C 	0.0319	0.4561	0.5143	-0.094
Mof_H 	H 	0.053	0.4696	0.5263	0.051
Mof_O 	O 	0.54138	0.82349	0.04143	-0.413
Mof_O 	O 	0.54112	0.75557	0.04104	-0.416
Mof_C 	C 	0.55262	0.78943	0.05407	0.365
Mof_C 	C 	0.58122	0.78918	0.0882	-0.114
Mof_C 	C 	0.59521	0.82484	0.10476	0.039
Mof_H 	H 	0.5865	0.85	0.094	0.029
Mof_C 	C 	0.62162	0.82429	0.13671	-0.101
Mof_H 	H 	0.6307	0.8491	0.148	0.063
Mof_C 	C 	0.6351	0.78782	0.15256	0.035
Mof_C 	C 	0.62105	0.75215	0.13556	-0.099
Mof_H 	H 	0.6301	0.7269	0.146	0.062
Mof_C 	C 	0.5944	0.75243	0.104	0.037
Mof_H 	H 	0.585	0.7276	0.093	0.032
Mof_C 	C 	0.66388	0.78656	0.18634	0.049
Mof_C 	C 	0.66185	0.81346	0.21761	-0.131
Mof_H 	H 	0.6418	0.8341	0.2174	0.074
Mof_C 	C 	0.7217	0.75312	0.21755	0.03
Mof_C 	C 	0.69403	0.75707	0.1867	-0.103
Mof_H 	H 	0.6957	0.7388	0.1648	0.063
Mof_C 	C 	0.4899	0.9133	0.0324	-0.083
Mof_H 	H 	0.4833	0.8992	0.0555	0.051
Mof_C 	C 	0.4894	0.95522	0.0332	-0.024
Mof_H 	H 	0.4818	0.9687	0.0563	0.025
Mof_C 	C 	0.5297	0.9147	0.0151	0.132
Mof_H 	H 	0.5486	0.9008	0.0299	-0.019
Mof_C 	C 	0.5319	0.9561	0.0143	-0.023
Mof_H 	H 	0.553	0.9696	0.0263	0.028
Mof_O 	O 	0.95862	0.67651	0.54143	-0.405
Mof_O 	O 	0.95888	0.74443	0.54104	-0.405
Mof_C 	C 	0.94738	0.71057	0.55407	0.364
Mof_C 	C 	0.91878	0.71082	0.5882	-0.11
Mof_C 	C 	0.90479	0.67516	0.60476	0.038
Mof_H 	H 	0.9135	0.65	0.594	0.031
Mof_C 	C 	0.87838	0.67571	0.63671	-0.099
Mof_H 	H 	0.8693	0.6509	0.648	0.063
Mof_C 	C 	0.8649	0.71218	0.65256	0.035
Mof_C 	C 	0.87895	0.74785	0.63556	-0.097
Mof_H 	H 	0.8699	0.7731	0.646	0.064
Mof_C 	C 	0.9056	0.74757	0.604	0.036
Mof_H 	H 	0.915	0.7724	0.593	0.036
Mof_C 	C 	0.83612	0.71344	0.68634	0.051
Mof_C 	C 	0.83815	0.68654	0.71761	-0.132
Mof_H 	H 	0.8582	0.6659	0.7174	0.075
Mof_C 	C 	0.7783	0.74688	0.71755	0.031
Mof_C 	C 	0.80597	0.74293	0.6867	-0.103
Mof_H 	H 	0.8043	0.7612	0.6648	0.064
Mof_C 	C 	0.0101	0.5867	0.5324	-0.029
Mof_H 	H 	0.0167	0.6008	0.5555	0.028
Mof_C 	C 	0.0106	0.54478	0.5332	0.034
Mof_H 	H 	0.0182	0.5313	0.5563	0
Mof_C 	C 	0.9703	0.5853	0.5151	0.081
Mof_H 	H 	0.9514	0.5992	0.5299	0.002
Mof_C 	C 	0.9681	0.5439	0.5143	-0.073
Mof_H 	H 	0.947	0.5304	0.5263	0.045
Mof_O 	O 	0.45862	0.17651	0.04143	-0.414
Mof_O 	O 	0.45888	0.24443	0.04104	-0.416
Mof_C 	C 	0.44738	0.21057	0.05407	0.365
Mof_C 	C 	0.41878	0.21082	0.0882	-0.115
Mof_C 	C 	0.40479	0.17516	0.10476	0.038
Mof_H 	H 	0.4135	0.15	0.094	0.028
Mof_C 	C 	0.37838	0.17571	0.13671	-0.102
Mof_H 	H 	0.3693	0.1509	0.148	0.061
Mof_C 	C 	0.3649	0.21218	0.15256	0.035
Mof_C 	C 	0.37895	0.24785	0.13556	-0.1
Mof_H 	H 	0.3699	0.2731	0.146	0.062
Mof_C 	C 	0.4056	0.24757	0.104	0.037
Mof_H 	H 	0.415	0.2724	0.093	0.032
Mof_C 	C 	0.33612	0.21344	0.18634	0.048
Mof_C 	C 	0.33815	0.18654	0.21761	-0.131
Mof_H 	H 	0.3582	0.1659	0.2174	0.072
Mof_C 	C 	0.2783	0.24688	0.21755	0.029
Mof_C 	C 	0.30597	0.24293	0.1867	-0.103
Mof_H 	H 	0.3043	0.2612	0.1648	0.062
Mof_C 	C 	0.5101	0.0867	0.0324	-0.078
Mof_H 	H 	0.5167	0.1008	0.0555	0.049
Mof_C 	C 	0.5106	0.04478	0.0332	-0.022
Mof_H 	H 	0.5182	0.0313	0.0563	0.02
Mof_C 	C 	0.4703	0.0853	0.0151	0.121
Mof_H 	H 	0.4514	0.0992	0.0299	-0.016
Mof_C 	C 	0.4681	0.0439	0.0143	-0.007
Mof_H 	H 	0.447	0.0304	0.0263	0.015
Mof_O 	O 	0.67651	0.95862	0.54143	-0.405
Mof_O 	O 	0.74443	0.95888	0.54104	-0.405
Mof_C 	C 	0.71057	0.94738	0.55407	0.364
Mof_C 	C 	0.71082	0.91878	0.5882	-0.11
Mof_C 	C 	0.67516	0.90479	0.60476	0.038
Mof_H 	H 	0.65	0.9135	0.594	0.031
Mof_C 	C 	0.67571	0.87838	0.63671	-0.099
Mof_H 	H 	0.6509	0.8693	0.648	0.063
Mof_C 	C 	0.71218	0.8649	0.65256	0.035
Mof_C 	C 	0.74785	0.87895	0.63556	-0.097
Mof_H 	H 	0.7731	0.8699	0.646	0.064
Mof_C 	C 	0.74757	0.9056	0.604	0.036
Mof_H 	H 	0.7724	0.915	0.593	0.036
Mof_C 	C 	0.71344	0.83612	0.68634	0.051
Mof_C 	C 	0.68654	0.83815	0.71761	-0.132
Mof_H 	H 	0.6659	0.8582	0.7174	0.075
Mof_C 	C 	0.74688	0.7783	0.71755	0.031
Mof_C 	C 	0.74293	0.80597	0.6867	-0.103
Mof_H 	H 	0.7612	0.8043	0.6648	0.064
Mof_C 	C 	0.5867	0.0101	0.5324	-0.029
Mof_H 	H 	0.6008	0.0167	0.5555	0.028
Mof_C 	C 	0.54478	0.0106	0.5332	0.034
Mof_H 	H 	0.5313	0.0182	0.5563	0
Mof_C 	C 	0.5853	0.9703	0.5151	0.081
Mof_H 	H 	0.5992	0.9514	0.5299	0.002
Mof_C 	C 	0.5439	0.9681	0.5143	-0.073
Mof_H 	H 	0.5304	0.947	0.5263	0.045
Mof_O 	O 	0.17651	0.45862	0.04143	-0.414
Mof_O 	O 	0.24443	0.45888	0.04104	-0.416
Mof_C 	C 	0.21057	0.44738	0.05407	0.365
Mof_C 	C 	0.21082	0.41878	0.0882	-0.115
Mof_C 	C 	0.17516	0.40479	0.10476	0.038
Mof_H 	H 	0.15	0.4135	0.094	0.028
Mof_C 	C 	0.17571	0.37838	0.13671	-0.102
Mof_H 	H 	0.1509	0.3693	0.148	0.061
Mof_C 	C 	0.21218	0.3649	0.15256	0.035
Mof_C 	C 	0.24785	0.37895	0.13556	-0.1
Mof_H 	H 	0.2731	0.3699	0.146	0.062
Mof_C 	C 	0.24757	0.4056	0.104	0.037
Mof_H 	H 	0.2724	0.415	0.093	0.032
Mof_C 	C 	0.21344	0.33612	0.18634	0.048
Mof_C 	C 	0.18654	0.33815	0.21761	-0.131
Mof_H 	H 	0.1659	0.3582	0.2174	0.072
Mof_C 	C 	0.24688	0.2783	0.21755	0.029
Mof_C 	C 	0.24293	0.30597	0.1867	-0.103
Mof_H 	H 	0.2612	0.3043	0.1648	0.062
Mof_C 	C 	0.0867	0.5101	0.0324	-0.078
Mof_H 	H 	0.1008	0.5167	0.0555	0.049
Mof_C 	C 	0.04478	0.5106	0.0332	-0.022
Mof_H 	H 	0.0313	0.5182	0.0563	0.02
Mof_C 	C 	0.0853	0.4703	0.0151	0.121
Mof_H 	H 	0.0992	0.4514	0.0299	-0.016
Mof_C 	C 	0.0439	0.4681	0.0143	-0.007
Mof_H 	H 	0.0304	0.447	0.0263	0.015
Mof_O 	O 	0.32349	0.04138	0.54143	-0.412
Mof_O 	O 	0.25557	0.04112	0.54104	-0.413
Mof_C 	C 	0.28943	0.05262	0.55407	0.365
Mof_C 	C 	0.28918	0.08122	0.5882	-0.113
Mof_C 	C 	0.32484	0.09521	0.60476	0.038
Mof_H 	H 	0.35	0.0865	0.594	0.029
Mof_C 	C 	0.32429	0.12162	0.63671	-0.101
Mof_H 	H 	0.3491	0.1307	0.648	0.062
Mof_C 	C 	0.28782	0.1351	0.65256	0.035
Mof_C 	C 	0.25215	0.12105	0.63556	-0.099
Mof_H 	H 	0.2269	0.1301	0.646	0.062
Mof_C 	C 	0.25243	0.0944	0.604	0.037
Mof_H 	H 	0.2276	0.085	0.593	0.033
Mof_C 	C 	0.28656	0.16388	0.68634	0.049
Mof_C 	C 	0.31346	0.16185	0.71761	-0.131
Mof_H 	H 	0.3341	0.1418	0.7174	0.073
Mof_C 	C 	0.25312	0.2217	0.71755	0.03
Mof_C 	C 	0.25707	0.19403	0.6867	-0.103
Mof_H 	H 	0.2388	0.1957	0.6648	0.063
Mof_C 	C 	0.4133	0.9899	0.5324	-0.073
Mof_H 	H 	0.3992	0.9833	0.5555	0.05
Mof_C 	C 	0.45522	0.9894	0.5332	-0.014
Mof_H 	H 	0.4687	0.9818	0.5563	0.022
Mof_C 	C 	0.4147	0.0297	0.5151	0.059
Mof_H 	H 	0.4008	0.0486	0.5299	0.007
Mof_C 	C 	0.4561	0.0319	0.5143	-0.094
Mof_H 	H 	0.4696	0.053	0.5263	0.051
Mof_O 	O 	0.82349	0.54138	0.04143	-0.413
Mof_O 	O 	0.75557	0.54112	0.04104	-0.416
Mof_C 	C 	0.78943	0.55262	0.05407	0.365
Mof_C 	C 	0.78918	0.58122	0.0882	-0.114
Mof_C 	C 	0.82484	0.59521	0.10476	0.039
Mof_H 	H 	0.85	0.5865	0.094	0.029
Mof_C 	C 	0.82429	0.62162	0.13671	-0.101
Mof_H 	H 	0.8491	0.6307	0.148	0.063
Mof_C 	C 	0.78782	0.6351	0.15256	0.035
Mof_C 	C 	0.75215	0.62105	0.13556	-0.099
Mof_H 	H 	0.7269	0.6301	0.146	0.062
Mof_C 	C 	0.75243	0.5944	0.104	0.037
Mof_H 	H 	0.7276	0.585	0.093	0.032
Mof_C 	C 	0.78656	0.66388	0.18634	0.049
Mof_C 	C 	0.81346	0.66185	0.21761	-0.131
Mof_H 	H 	0.8341	0.6418	0.2174	0.074
Mof_C 	C 	0.75312	0.7217	0.21755	0.03
Mof_C 	C 	0.75707	0.69403	0.1867	-0.103
Mof_H 	H 	0.7388	0.6957	0.1648	0.063
Mof_C 	C 	0.9133	0.4899	0.0324	-0.083
Mof_H 	H 	0.8992	0.4833	0.0555	0.051
Mof_C 	C 	0.95522	0.4894	0.0332	-0.024
Mof_H 	H 	0.9687	0.4818	0.0563	0.025
Mof_C 	C 	0.9147	0.5297	0.0151	0.132
Mof_H 	H 	0.9008	0.5486	0.0299	-0.019
Mof_C 	C 	0.9561	0.5319	0.0143	-0.023
Mof_H 	H 	0.9696	0.553	0.0263	0.028
Mof_O 	O 	0.04138	0.67651	0.54143	-0.411
Mof_O 	O 	0.04112	0.74443	0.54104	-0.413
Mof_C 	C 	0.05262	0.71057	0.55407	0.365
Mof_C 	C 	0.08122	0.71082	0.5882	-0.113
Mof_C 	C 	0.09521	0.67516	0.60476	0.038
Mof_H 	H 	0.0865	0.65	0.594	0.029
Mof_C 	C 	0.12162	0.67571	0.63671	-0.101
Mof_H 	H 	0.1307	0.6509	0.648	0.062
Mof_C 	C 	0.1351	0.71218	0.65256	0.035
Mof_C 	C 	0.12105	0.74785	0.63556	-0.099
Mof_H 	H 	0.1301	0.7731	0.646	0.063
Mof_C 	C 	0.0944	0.74757	0.604	0.037
Mof_H 	H 	0.085	0.7724	0.593	0.034
Mof_C 	C 	0.16388	0.71344	0.68634	0.05
Mof_C 	C 	0.16185	0.68654	0.71761	-0.131
Mof_H 	H 	0.1418	0.6659	0.7174	0.073
Mof_C 	C 	0.2217	0.74688	0.71755	0.03
Mof_C 	C 	0.19403	0.74293	0.6867	-0.102
Mof_H 	H 	0.1957	0.7612	0.6648	0.063
Mof_C 	C 	0.9899	0.5867	0.5324	-0.073
Mof_H 	H 	0.9833	0.6008	0.5555	0.05
Mof_C 	C 	0.9894	0.54478	0.5332	-0.014
Mof_H 	H 	0.9818	0.5313	0.5563	0.022
Mof_C 	C 	0.0297	0.5853	0.5151	0.059
Mof_H 	H 	0.0486	0.5992	0.5299	0.007
Mof_C 	C 	0.0319	0.5439	0.5143	-0.094
Mof_H 	H 	0.053	0.5304	0.5263	0.051
Mof_O 	O 	0.54138	0.17651	0.04143	-0.414
Mof_O 	O 	0.54112	0.24443	0.04104	-0.416
Mof_C 	C 	0.55262	0.21057	0.05407	0.365
Mof_C 	C 	0.58122	0.21082	0.0882	-0.115
Mof_C 	C 	0.59521	0.17516	0.10476	0.038
Mof_H 	H 	0.5865	0.15	0.094	0.028
Mof_C 	C 	0.62162	0.17571	0.13671	-0.102
Mof_H 	H 	0.6307	0.1509	0.148	0.061
Mof_C 	C 	0.6351	0.21218	0.15256	0.035
Mof_C 	C 	0.62105	0.24785	0.13556	-0.1
Mof_H 	H 	0.6301	0.2731	0.146	0.062
Mof_C 	C 	0.5944	0.24757	0.104	0.037
Mof_H 	H 	0.585	0.2724	0.093	0.032
Mof_C 	C 	0.66388	0.21344	0.18634	0.049
Mof_C 	C 	0.66185	0.18654	0.21761	-0.131
Mof_H 	H 	0.6418	0.1659	0.2174	0.073
Mof_C 	C 	0.7217	0.24688	0.21755	0.029
Mof_C 	C 	0.69403	0.24293	0.1867	-0.102
Mof_H 	H 	0.6957	0.2612	0.1648	0.062
Mof_C 	C 	0.4899	0.0867	0.0324	-0.078
Mof_H 	H 	0.4833	0.1008	0.0555	0.049
Mof_C 	C 	0.4894	0.04478	0.0332	-0.022
Mof_H 	H 	0.4818	0.0313	0.0563	0.02
Mof_C 	C 	0.5297	0.0853	0.0151	0.121
Mof_H 	H 	0.5486	0.0992	0.0299	-0.016
Mof_C 	C 	0.5319	0.0439	0.0143	-0.007
Mof_H 	H 	0.553	0.0304	0.0263	0.016
Mof_O 	O 	0.95862	0.32349	0.54143	-0.405
Mof_O 	O 	0.95888	0.25557	0.54104	-0.406
Mof_C 	C 	0.94738	0.28943	0.55407	0.364
Mof_C 	C 	0.91878	0.28918	0.5882	-0.11
Mof_C 	C 	0.90479	0.32484	0.60476	0.038
Mof_H 	H 	0.9135	0.35	0.594	0.03
Mof_C 	C 	0.87838	0.32429	0.63671	-0.099
Mof_H 	H 	0.8693	0.3491	0.648	0.063
Mof_C 	C 	0.8649	0.28782	0.65256	0.035
Mof_C 	C 	0.87895	0.25215	0.63556	-0.097
Mof_H 	H 	0.8699	0.2269	0.646	0.063
Mof_C 	C 	0.9056	0.25243	0.604	0.036
Mof_H 	H 	0.915	0.2276	0.593	0.035
Mof_C 	C 	0.83612	0.28656	0.68634	0.051
Mof_C 	C 	0.83815	0.31346	0.71761	-0.132
Mof_H 	H 	0.8582	0.3341	0.7174	0.075
Mof_C 	C 	0.7783	0.25312	0.71755	0.03
Mof_C 	C 	0.80597	0.25707	0.6867	-0.103
Mof_H 	H 	0.8043	0.2388	0.6648	0.064
Mof_C 	C 	0.0101	0.4133	0.5324	-0.029
Mof_H 	H 	0.0167	0.3992	0.5555	0.028
Mof_C 	C 	0.0106	0.45522	0.5332	0.034
Mof_H 	H 	0.0182	0.4687	0.5563	0
Mof_C 	C 	0.9703	0.4147	0.5151	0.081
Mof_H 	H 	0.9514	0.4008	0.5299	0.002
Mof_C 	C 	0.9681	0.4561	0.5143	-0.073
Mof_H 	H 	0.947	0.4696	0.5263	0.045
Mof_O 	O 	0.45862	0.82349	0.04143	-0.413
Mof_O 	O 	0.45888	0.75557	0.04104	-0.416
Mof_C 	C 	0.44738	0.78943	0.05407	0.365
Mof_C 	C 	0.41878	0.78918	0.0882	-0.114
Mof_C 	C 	0.40479	0.82484	0.10476	0.039
Mof_H 	H 	0.4135	0.85	0.094	0.029
Mof_C 	C 	0.37838	0.82429	0.13671	-0.101
Mof_H 	H 	0.3693	0.8491	0.148	0.063
Mof_C 	C 	0.3649	0.78782	0.15256	0.035
Mof_C 	C 	0.37895	0.75215	0.13556	-0.099
Mof_H 	H 	0.3699	0.7269	0.146	0.062
Mof_C 	C 	0.4056	0.75243	0.104	0.037
Mof_H 	H 	0.415	0.7276	0.093	0.032
Mof_C 	C 	0.33612	0.78656	0.18634	0.049
Mof_C 	C 	0.33815	0.81346	0.21761	-0.132
Mof_H 	H 	0.3582	0.8341	0.2174	0.074
Mof_C 	C 	0.2783	0.75312	0.21755	0.03
Mof_C 	C 	0.30597	0.75707	0.1867	-0.103
Mof_H 	H 	0.3043	0.7388	0.1648	0.062
Mof_C 	C 	0.5101	0.9133	0.0324	-0.083
Mof_H 	H 	0.5167	0.8992	0.0555	0.051
Mof_C 	C 	0.5106	0.95522	0.0332	-0.024
Mof_H 	H 	0.5182	0.9687	0.0563	0.025
Mof_C 	C 	0.4703	0.9147	0.0151	0.132
Mof_H 	H 	0.4514	0.9008	0.0299	-0.019
Mof_C 	C 	0.4681	0.9561	0.0143	-0.023
Mof_H 	H 	0.447	0.9696	0.0263	0.027
Mof_O 	O 	0.32349	0.95862	0.45857	-0.405
Mof_O 	O 	0.25557	0.95888	0.45896	-0.406
Mof_C 	C 	0.28943	0.94738	0.44593	0.364
Mof_C 	C 	0.28918	0.91878	0.4118	-0.11
Mof_C 	C 	0.32484	0.90479	0.39524	0.038
Mof_H 	H 	0.35	0.9135	0.406	0.03
Mof_C 	C 	0.32429	0.87838	0.36329	-0.099
Mof_H 	H 	0.3491	0.8693	0.352	0.063
Mof_C 	C 	0.28782	0.8649	0.34744	0.035
Mof_C 	C 	0.25215	0.87895	0.36444	-0.097
Mof_H 	H 	0.2269	0.8699	0.354	0.063
Mof_C 	C 	0.25243	0.9056	0.396	0.036
Mof_H 	H 	0.2276	0.915	0.407	0.035
Mof_C 	C 	0.28656	0.83612	0.31366	0.05
Mof_C 	C 	0.31346	0.83815	0.28239	-0.132
Mof_H 	H 	0.3341	0.8582	0.2826	0.074
Mof_C 	C 	0.25312	0.7783	0.28245	0.03
Mof_C 	C 	0.25707	0.80597	0.3133	-0.103
Mof_H 	H 	0.2388	0.8043	0.3352	0.063
Mof_C 	C 	0.4133	0.0101	0.4676	-0.029
Mof_H 	H 	0.3992	0.0167	0.4445	0.028
Mof_C 	C 	0.45522	0.0106	0.4668	0.034
Mof_H 	H 	0.4687	0.0182	0.4437	0
Mof_C 	C 	0.4147	0.9703	0.4849	0.081
Mof_H 	H 	0.4008	0.9514	0.4701	0.002
Mof_C 	C 	0.4561	0.9681	0.4857	-0.073
Mof_H 	H 	0.4696	0.947	0.4737	0.045
Mof_O 	O 	0.82349	0.45862	0.95857	-0.401
Mof_O 	O 	0.75557	0.45888	0.95896	-0.401
Mof_C 	C 	0.78943	0.44738	0.94593	0.363
Mof_C 	C 	0.78918	0.41878	0.9118	-0.108
Mof_C 	C 	0.82484	0.40479	0.89524	0.038
Mof_H 	H 	0.85	0.4135	0.906	0.032
Mof_C 	C 	0.82429	0.37838	0.86329	-0.098
Mof_H 	H 	0.8491	0.3693	0.852	0.064
Mof_C 	C 	0.78782	0.3649	0.84744	0.035
Mof_C 	C 	0.75215	0.37895	0.86444	-0.096
Mof_H 	H 	0.7269	0.3699	0.854	0.063
Mof_C 	C 	0.75243	0.4056	0.896	0.035
Mof_H 	H 	0.7276	0.415	0.907	0.037
Mof_C 	C 	0.78656	0.33612	0.81366	0.051
Mof_C 	C 	0.81346	0.33815	0.78239	-0.132
Mof_H 	H 	0.8341	0.3582	0.7826	0.075
Mof_C 	C 	0.75312	0.2783	0.78245	0.031
Mof_C 	C 	0.75707	0.30597	0.8133	-0.103
Mof_H 	H 	0.7388	0.3043	0.8352	0.065
Mof_C 	C 	0.9133	0.5101	0.9676	-0.02
Mof_H 	H 	0.8992	0.5167	0.9445	0.029
Mof_C 	C 	0.95522	0.5106	0.9668	0.043
Mof_H 	H 	0.9687	0.5182	0.9437	0.004
Mof_C 	C 	0.9147	0.4703	0.9849	0.017
Mof_H 	H 	0.9008	0.4514	0.9701	0.027
Mof_C 	C 	0.9561	0.4681	0.9857	-0.152
Mof_H 	H 	0.9696	0.447	0.9737	0.079
Mof_O 	O 	0.67651	0.04138	0.45857	-0.412
Mof_O 	O 	0.74443	0.04112	0.45896	-0.413
Mof_C 	C 	0.71057	0.05262	0.44593	0.365
Mof_C 	C 	0.71082	0.08122	0.4118	-0.113
Mof_C 	C 	0.67516	0.09521	0.39524	0.038
Mof_H 	H 	0.65	0.0865	0.406	0.029
Mof_C 	C 	0.67571	0.12162	0.36329	-0.101
Mof_H 	H 	0.6509	0.1307	0.352	0.062
Mof_C 	C 	0.71218	0.1351	0.34744	0.035
Mof_C 	C 	0.74785	0.12105	0.36444	-0.099
Mof_H 	H 	0.7731	0.1301	0.354	0.062
Mof_C 	C 	0.74757	0.0944	0.396	0.036
Mof_H 	H 	0.7724	0.085	0.407	0.034
Mof_C 	C 	0.71344	0.16388	0.31366	0.049
Mof_C 	C 	0.68654	0.16185	0.28239	-0.131
Mof_H 	H 	0.6659	0.1418	0.2826	0.073
Mof_C 	C 	0.74688	0.2217	0.28245	0.029
Mof_C 	C 	0.74293	0.19403	0.3133	-0.102
Mof_H 	H 	0.7612	0.1957	0.3352	0.063
Mof_C 	C 	0.5867	0.9899	0.4676	-0.073
Mof_H 	H 	0.6008	0.9833	0.4445	0.05
Mof_C 	C 	0.54478	0.9894	0.4668	-0.014
Mof_H 	H 	0.5313	0.9818	0.4437	0.022
Mof_C 	C 	0.5853	0.0297	0.4849	0.059
Mof_H 	H 	0.5992	0.0486	0.4701	0.007
Mof_C 	C 	0.5439	0.0319	0.4857	-0.094
Mof_H 	H 	0.5304	0.053	0.4737	0.051
Mof_O 	O 	0.17651	0.54138	0.95857	-0.401
Mof_O 	O 	0.24443	0.54112	0.95896	-0.401
Mof_C 	C 	0.21057	0.55262	0.94593	0.363
Mof_C 	C 	0.21082	0.58122	0.9118	-0.109
Mof_C 	C 	0.17516	0.59521	0.89524	0.037
Mof_H 	H 	0.15	0.5865	0.906	0.031
Mof_C 	C 	0.17571	0.62162	0.86329	-0.098
Mof_H 	H 	0.1509	0.6307	0.852	0.062
Mof_C 	C 	0.21218	0.6351	0.84744	0.034
Mof_C 	C 	0.24785	0.62105	0.86444	-0.096
Mof_H 	H 	0.2731	0.6301	0.854	0.063
Mof_C 	C 	0.24757	0.5944	0.896	0.035
Mof_H 	H 	0.2724	0.585	0.907	0.037
Mof_C 	C 	0.21344	0.66388	0.81366	0.051
Mof_C 	C 	0.18654	0.66185	0.78239	-0.131
Mof_H 	H 	0.1659	0.6418	0.7826	0.073
Mof_C 	C 	0.24688	0.7217	0.78245	0.03
Mof_C 	C 	0.24293	0.69403	0.8133	-0.103
Mof_H 	H 	0.2612	0.6957	0.8352	0.064
Mof_C 	C 	0.0867	0.4899	0.9676	-0.015
Mof_H 	H 	0.1008	0.4833	0.9445	0.027
Mof_C 	C 	0.04478	0.4894	0.9668	0.045
Mof_H 	H 	0.0313	0.4818	0.9437	-0.002
Mof_C 	C 	0.0853	0.5297	0.9849	0.006
Mof_H 	H 	0.0992	0.5486	0.9701	0.029
Mof_C 	C 	0.0439	0.5319	0.9857	-0.136
Mof_H 	H 	0.0304	0.553	0.9737	0.067
Mof_O 	O 	0.95862	0.67651	0.45857	-0.405
Mof_O 	O 	0.95888	0.74443	0.45896	-0.405
Mof_C 	C 	0.94738	0.71057	0.44593	0.364
Mof_C 	C 	0.91878	0.71082	0.4118	-0.11
Mof_C 	C 	0.90479	0.67516	0.39524	0.038
Mof_H 	H 	0.9135	0.65	0.406	0.03
Mof_C 	C 	0.87838	0.67571	0.36329	-0.099
Mof_H 	H 	0.8693	0.6509	0.352	0.063
Mof_C 	C 	0.8649	0.71218	0.34744	0.035
Mof_C 	C 	0.87895	0.74785	0.36444	-0.097
Mof_H 	H 	0.8699	0.7731	0.354	0.063
Mof_C 	C 	0.9056	0.74757	0.396	0.036
Mof_H 	H 	0.915	0.7724	0.407	0.036
Mof_C 	C 	0.83612	0.71344	0.31366	0.051
Mof_C 	C 	0.83815	0.68654	0.28239	-0.132
Mof_H 	H 	0.8582	0.6659	0.2826	0.074
Mof_C 	C 	0.7783	0.74688	0.28245	0.03
Mof_C 	C 	0.80597	0.74293	0.3133	-0.103
Mof_H 	H 	0.8043	0.7612	0.3352	0.064
Mof_C 	C 	0.0101	0.5867	0.4676	-0.029
Mof_H 	H 	0.0167	0.6008	0.4445	0.028
Mof_C 	C 	0.0106	0.54478	0.4668	0.034
Mof_H 	H 	0.0182	0.5313	0.4437	0
Mof_C 	C 	0.9703	0.5853	0.4849	0.081
Mof_H 	H 	0.9514	0.5992	0.4701	0.002
Mof_C 	C 	0.9681	0.5439	0.4857	-0.073
Mof_H 	H 	0.947	0.5304	0.4737	0.045
Mof_O 	O 	0.45862	0.17651	0.95857	-0.401
Mof_O 	O 	0.45888	0.24443	0.95896	-0.401
Mof_C 	C 	0.44738	0.21057	0.94593	0.363
Mof_C 	C 	0.41878	0.21082	0.9118	-0.109
Mof_C 	C 	0.40479	0.17516	0.89524	0.037
Mof_H 	H 	0.4135	0.15	0.906	0.031
Mof_C 	C 	0.37838	0.17571	0.86329	-0.098
Mof_H 	H 	0.3693	0.1509	0.852	0.062
Mof_C 	C 	0.3649	0.21218	0.84744	0.034
Mof_C 	C 	0.37895	0.24785	0.86444	-0.096
Mof_H 	H 	0.3699	0.2731	0.854	0.063
Mof_C 	C 	0.4056	0.24757	0.896	0.035
Mof_H 	H 	0.415	0.2724	0.907	0.037
Mof_C 	C 	0.33612	0.21344	0.81366	0.051
Mof_C 	C 	0.33815	0.18654	0.78239	-0.132
Mof_H 	H 	0.3582	0.1659	0.7826	0.073
Mof_C 	C 	0.2783	0.24688	0.78245	0.03
Mof_C 	C 	0.30597	0.24293	0.8133	-0.103
Mof_H 	H 	0.3043	0.2612	0.8352	0.064
Mof_C 	C 	0.5101	0.0867	0.9676	-0.015
Mof_H 	H 	0.5167	0.1008	0.9445	0.027
Mof_C 	C 	0.5106	0.04478	0.9668	0.045
Mof_H 	H 	0.5182	0.0313	0.9437	-0.002
Mof_C 	C 	0.4703	0.0853	0.9849	0.006
Mof_H 	H 	0.4514	0.0992	0.9701	0.029
Mof_C 	C 	0.4681	0.0439	0.9857	-0.136
Mof_H 	H 	0.447	0.0304	0.9737	0.067
Mof_O 	O 	0.04138	0.32349	0.45857	-0.412
Mof_O 	O 	0.04112	0.25557	0.45896	-0.414
Mof_C 	C 	0.05262	0.28943	0.44593	0.365
Mof_C 	C 	0.08122	0.28918	0.4118	-0.114
Mof_C 	C 	0.09521	0.32484	0.39524	0.038
Mof_H 	H 	0.0865	0.35	0.406	0.029
Mof_C 	C 	0.12162	0.32429	0.36329	-0.101
Mof_H 	H 	0.1307	0.3491	0.352	0.062
Mof_C 	C 	0.1351	0.28782	0.34744	0.035
Mof_C 	C 	0.12105	0.25215	0.36444	-0.099
Mof_H 	H 	0.1301	0.2269	0.354	0.062
Mof_C 	C 	0.0944	0.25243	0.396	0.036
Mof_H 	H 	0.085	0.2276	0.407	0.032
Mof_C 	C 	0.16388	0.28656	0.31366	0.049
Mof_C 	C 	0.16185	0.31346	0.28239	-0.131
Mof_H 	H 	0.1418	0.3341	0.2826	0.072
Mof_C 	C 	0.2217	0.25312	0.28245	0.029
Mof_C 	C 	0.19403	0.25707	0.3133	-0.103
Mof_H 	H 	0.1957	0.2388	0.3352	0.063
Mof_C 	C 	0.9899	0.4133	0.4676	-0.073
Mof_H 	H 	0.9833	0.3992	0.4445	0.05
Mof_C 	C 	0.9894	0.45522	0.4668	-0.014
Mof_H 	H 	0.9818	0.4687	0.4437	0.022
Mof_C 	C 	0.0297	0.4147	0.4849	0.059
Mof_H 	H 	0.0486	0.4008	0.4701	0.007
Mof_C 	C 	0.0319	0.4561	0.4857	-0.094
Mof_H 	H 	0.053	0.4696	0.4737	0.051
Mof_O 	O 	0.54138	0.82349	0.95857	-0.4
Mof_O 	O 	0.54112	0.75557	0.95896	-0.401
Mof_C 	C 	0.55262	0.78943	0.94593	0.363
Mof_C 	C 	0.58122	0.78918	0.9118	-0.108
Mof_C 	C 	0.59521	0.82484	0.89524	0.038
Mof_H 	H 	0.5865	0.85	0.906	0.032
Mof_C 	C 	0.62162	0.82429	0.86329	-0.098
Mof_H 	H 	0.6307	0.8491	0.852	0.064
Mof_C 	C 	0.6351	0.78782	0.84744	0.035
Mof_C 	C 	0.62105	0.75215	0.86444	-0.096
Mof_H 	H 	0.6301	0.7269	0.854	0.063
Mof_C 	C 	0.5944	0.75243	0.896	0.036
Mof_H 	H 	0.585	0.7276	0.907	0.037
Mof_C 	C 	0.66388	0.78656	0.81366	0.052
Mof_C 	C 	0.66185	0.81346	0.78239	-0.132
Mof_H 	H 	0.6418	0.8341	0.7826	0.075
Mof_C 	C 	0.7217	0.75312	0.78245	0.031
Mof_C 	C 	0.69403	0.75707	0.8133	-0.103
Mof_H 	H 	0.6957	0.7388	0.8352	0.065
Mof_C 	C 	0.4899	0.9133	0.9676	-0.02
Mof_H 	H 	0.4833	0.8992	0.9445	0.029
Mof_C 	C 	0.4894	0.95522	0.9668	0.043
Mof_H 	H 	0.4818	0.9687	0.9437	0.004
Mof_C 	C 	0.5297	0.9147	0.9849	0.017
Mof_H 	H 	0.5486	0.9008	0.9701	0.027
Mof_C 	C 	0.5319	0.9561	0.9857	-0.152
Mof_H 	H 	0.553	0.9696	0.9737	0.079
Mof_Cu	Cu	0.32976	0	0.5	0.91
Mof_Cu	Cu	0.25185	0	0.5	0.903
Mof_N 	N 	0.39394	0	0.5	-0.202
Mof_C 	C 	0.47755	0	0.5	0.034
Mof_Cu	Cu	0.82976	0.5	-0	0.905
Mof_Cu	Cu	0.75185	0.5	-0	0.899
Mof_N 	N 	0.89394	0.5	-0	-0.211
Mof_C 	C 	0.97755	0.5	-0	0.048
Mof_Cu	Cu	0.67024	0	0.5	0.91
Mof_Cu	Cu	0.74815	0	0.5	0.903
Mof_N 	N 	0.60606	0	0.5	-0.202
Mof_C 	C 	0.52245	0	0.5	0.034
Mof_Cu	Cu	0.17024	0.5	-0	0.905
Mof_Cu	Cu	0.24815	0.5	-0	0.899
Mof_N 	N 	0.10606	0.5	-0	-0.206
Mof_C 	C 	0.02245	0.5	-0	-0.004
Mof_Cu	Cu	1.90194e-33	0.32976	0.5	0.91
Mof_Cu	Cu	-3.63569e-33	0.25185	0.5	0.903
Mof_N 	N 	-3.63569e-33	0.39394	0.5	-0.202
Mof_C 	C 	7.43956e-33	0.47755	0.5	0.034
Mof_Cu	Cu	0.5	0.82976	-0	0.905
Mof_Cu	Cu	0.5	0.75185	-0	0.899
Mof_N 	N 	0.5	0.89394	-0	-0.211
Mof_C 	C 	0.5	0.97755	-0	0.048
Mof_Cu	Cu	-9.17331e-33	0.67024	0.5	0.91
Mof_Cu	Cu	1.90194e-33	0.74815	0.5	0.903
Mof_N 	N 	7.43956e-33	0.60606	0.5	-0.202
Mof_C 	C 	1.90194e-33	0.52245	0.5	0.034
Mof_Cu	Cu	0.5	0.17024	-0	0.905
Mof_Cu	Cu	0.5	0.24815	-0	0.899
Mof_N 	N 	0.5	0.10606	-0	-0.206
Mof_C 	C 	0.5	0.02245	-0	-0.004
Mof_C 	C 	0.31095	0.18905	0.25	0.088
Mof_C 	C 	0.28061	0.21939	0.25	-0.048
Mof_C 	C 	0.68905	0.81095	0.25	0.09
Mof_C 	C 	0.71939	0.78061	0.25	-0.048
Mof_C 	C 	0.81095	0.31095	0.25	0.089
Mof_C 	C 	0.78061	0.28061	0.25	-0.048
Mof_C 	C 	0.18905	0.68905	0.25	0.088
Mof_C 	C 	0.21939	0.71939	0.25	-0.048
Mof_C 	C 	0.68905	0.18905	0.75	0.089
Mof_C 	C 	0.71939	0.21939	0.75	-0.048
Mof_C 	C 	0.31095	0.81095	0.75	0.091
Mof_C 	C 	0.28061	0.78061	0.75	-0.048
Mof_C 	C 	0.18905	0.31095	0.75	0.089
Mof_C 	C 	0.21939	0.28061	0.75	-0.048
Mof_C 	C 	0.81095	0.68905	0.75	0.091
Mof_C 	C 	0.78061	0.71939	0.75	-0.048
Mof_C 	C 	0.68905	0.81095	0.75	0.091
Mof_C 	C 	0.71939	0.78061	0.75	-0.048
Mof_C 	C 	0.18905	0.31095	0.25	0.088
Mof_C 	C 	0.21939	0.28061	0.25	-0.048
Mof_C 	C 	0.31095	0.18905	0.75	0.089
Mof_C 	C 	0.28061	0.21939	0.75	-0.048
Mof_C 	C 	0.18905	0.68905	0.75	0.089
Mof_C 	C 	0.21939	0.71939	0.75	-0.048
Mof_C 	C 	0.81095	0.31095	0.75	0.091
Mof_C 	C 	0.78061	0.28061	0.75	-0.048
Mof_C 	C 	0.31095	0.81095	0.25	0.089
Mof_C 	C 	0.28061	0.78061	0.25	-0.048
Mof_C 	C 	0.68905	0.18905	0.25	0.088
Mof_C 	C 	0.71939	0.21939	0.25	-0.048
Mof_C 	C 	0.81095	0.68905	0.25	0.09
Mof_C 	C 	0.78061	0.71939	0.25	-0.048
_end
