data_functionalizedCrystal
_audit_creation_method	'EQeq! by Chris Wilmer'
_symmetry_space_group_name_H-M	'P1'
_symmetry_Int_Tables_number	1
_symmetry_cell_setting	triclinic
loop_
_symmetry_equiv_pos_as_xyz
  x,y,z
_cell_length_a	15.0208
_cell_length_b	15.0208
_cell_length_c	19.217
_cell_angle_alpha	90
_cell_angle_beta	90
_cell_angle_gamma	90
loop_
_atom_site_label
_atom_site_type_symbol
_atom_site_fract_x
_atom_site_fract_y
_atom_site_fract_z
_atom_site_charge
Mof_O 	O 	0.9467	0.878	0.44282	-0.549
Mof_O 	O 	0.6217	0.5532	0.55745	-0.492
Mof_C 	C 	0.8291	0.7352	0.4374	0.313
Mof_C 	C 	0.7646	0.6696	0.4375	0.178
Mof_O 	O 	0.8566	0.7606	0.3754	0.655
Mof_H 	H 	0.8678	0.7213	0.3291	-0.122
Mof_H 	H 	0.7433	0.6469	0.394	-0.63
Mof_O 	O 	0.7453	0.6415	0.3759	0.627
Mof_H 	H 	0.7907	0.6117	0.338	-0.1
Mof_H 	H 	0.8537	0.7567	0.3953	-0.692
Mof_C 	C 	0.9121	0.039	0.2868	-1.097
Mof_H 	H 	0.096	0.8994	0.304	-0.273
Mof_H 	H 	0.9974	0.8611	0.3027	0.264
Mof_C 	C 	0.9173	0.0385	0.2071	-0.902
Mof_H 	H 	0.0881	0.8997	0.1899	-0.15
Mof_H 	H 	0.9959	0.8664	0.1885	0.314
Mof_C 	C 	0.0129	0.908	0.2903	-1.059
Mof_H 	H 	0.0704	0.8834	0.3065	-0.022
Mof_H 	H 	0.9648	0.8683	0.307	0.148
Mof_C 	C 	0.512	0.4106	0.7106	-0.027
Mof_H 	H 	0.9633	0.8721	0.1935	-0.201
Mof_H 	H 	0.0688	0.886	0.193	-0.095
Mof_C 	C 	0.0746	0.062	0.2895	-0.846
Mof_H 	H 	0.043	0.8672	0.3087	0.261
Mof_H 	H 	0.937	0.876	0.3045	0.008
Mof_C 	C 	0.0756	0.0562	0.2108	-0.793
Mof_H 	H 	0.0299	0.8675	0.1949	0.286
Mof_H 	H 	0.9297	0.8834	0.1905	0.221
Mof_O 	O 	0.4467	0.378	0.94282	-0.47
Mof_O 	O 	0.1217	0.0532	0.05745	-0.472
Mof_C 	C 	0.3291	0.2352	0.9374	0.338
Mof_C 	C 	0.2646	0.1696	0.9375	0.227
Mof_O 	O 	0.3566	0.2606	0.8754	0.648
Mof_H 	H 	0.3678	0.2213	0.8291	-0.101
Mof_H 	H 	0.2433	0.1469	0.894	-0.629
Mof_O 	O 	0.2453	0.1415	0.8759	0.616
Mof_H 	H 	0.2907	0.1117	0.838	-0.085
Mof_H 	H 	0.3537	0.2567	0.8953	-0.681
Mof_C 	C 	0.4121	0.539	0.7868	-0.025
Mof_H 	H 	0.596	0.3994	0.804	0.021
Mof_H 	H 	0.4974	0.3611	0.8027	0.027
Mof_C 	C 	0.4173	0.5385	0.7071	-0.006
Mof_H 	H 	0.5881	0.3997	0.6899	0.007
Mof_H 	H 	0.4959	0.3664	0.6885	0.015
Mof_C 	C 	0.5129	0.408	0.7903	-0.027
Mof_H 	H 	0.5704	0.3834	0.8065	0.009
Mof_H 	H 	0.4648	0.3683	0.807	0.019
Mof_C 	C 	0.012	0.9106	0.2106	-0.975
Mof_H 	H 	0.4633	0.3721	0.6935	-0.021
Mof_H 	H 	0.5688	0.386	0.693	-0.014
Mof_C 	C 	0.5746	0.562	0.7895	-0.004
Mof_H 	H 	0.543	0.3672	0.8087	-0.005
Mof_H 	H 	0.437	0.376	0.8045	-0.007
Mof_C 	C 	0.5756	0.5562	0.7108	-0.002
Mof_H 	H 	0.5299	0.3675	0.6949	0.031
Mof_H 	H 	0.4297	0.3834	0.6905	0.035
Mof_O 	O 	0.0533	0.122	0.44282	-0.484
Mof_O 	O 	0.3783	0.4468	0.55745	-0.489
Mof_C 	C 	0.1709	0.2648	0.4374	0.317
Mof_C 	C 	0.2354	0.3304	0.4375	0.187
Mof_O 	O 	0.1434	0.2394	0.3754	0.661
Mof_H 	H 	0.1322	0.2787	0.3291	-0.099
Mof_H 	H 	0.2567	0.3531	0.394	-0.628
Mof_O 	O 	0.2547	0.3585	0.3759	0.627
Mof_H 	H 	0.2093	0.3883	0.338	-0.088
Mof_H 	H 	0.1463	0.2433	0.3953	-0.69
Mof_C 	C 	0.0879	0.961	0.2868	1.013
Mof_H 	H 	0.904	0.1006	0.304	0.31
Mof_H 	H 	0.0026	0.1389	0.3027	-0.209
Mof_C 	C 	0.0827	0.9615	0.2071	0.864
Mof_H 	H 	0.9119	0.1003	0.1899	0.158
Mof_H 	H 	0.0041	0.1336	0.1885	-0.276
Mof_C 	C 	0.9871	0.092	0.2903	1.003
Mof_H 	H 	0.9296	0.1166	0.3065	0.049
Mof_H 	H 	0.0352	0.1317	0.307	-0.123
Mof_C 	C 	0.488	0.5894	0.7106	-0.033
Mof_H 	H 	0.0367	0.1279	0.1935	0.123
Mof_H 	H 	0.9312	0.114	0.193	0.071
Mof_C 	C 	0.9254	0.938	0.2895	0.787
Mof_H 	H 	0.957	0.1328	0.3087	-0.283
Mof_H 	H 	0.063	0.124	0.3045	-0.02
Mof_C 	C 	0.9244	0.9438	0.2108	0.741
Mof_H 	H 	0.9701	0.1325	0.1949	-0.216
Mof_H 	H 	0.0703	0.1166	0.1905	-0.134
Mof_O 	O 	0.5533	0.622	0.94282	-0.473
Mof_O 	O 	0.8783	0.9468	0.05745	-0.523
Mof_C 	C 	0.6709	0.7648	0.9374	0.339
Mof_C 	C 	0.7354	0.8304	0.9375	0.206
Mof_O 	O 	0.6434	0.7394	0.8754	0.646
Mof_H 	H 	0.6322	0.7787	0.8291	-0.108
Mof_H 	H 	0.7567	0.8531	0.894	-0.619
Mof_O 	O 	0.7547	0.8585	0.8759	0.612
Mof_H 	H 	0.7093	0.8883	0.838	-0.092
Mof_H 	H 	0.6463	0.7433	0.8953	-0.684
Mof_C 	C 	0.5879	0.461	0.7868	-0.03
Mof_H 	H 	0.404	0.6006	0.804	0.023
Mof_H 	H 	0.5026	0.6389	0.8027	0.029
Mof_C 	C 	0.5827	0.4615	0.7071	-0.012
Mof_H 	H 	0.4119	0.6003	0.6899	0.008
Mof_H 	H 	0.5041	0.6336	0.6885	0.016
Mof_C 	C 	0.4871	0.592	0.7903	-0.034
Mof_H 	H 	0.4296	0.6166	0.8065	0.009
Mof_H 	H 	0.5352	0.6317	0.807	0.018
Mof_C 	C 	0.988	0.0894	0.2106	0.906
Mof_H 	H 	0.5367	0.6279	0.6935	-0.023
Mof_H 	H 	0.4312	0.614	0.693	-0.013
Mof_C 	C 	0.4254	0.438	0.7895	-0.01
Mof_H 	H 	0.457	0.6328	0.8087	-0.005
Mof_H 	H 	0.563	0.624	0.8045	-0.01
Mof_C 	C 	0.4244	0.4438	0.7108	-0.008
Mof_H 	H 	0.4701	0.6325	0.6949	0.032
Mof_H 	H 	0.5703	0.6166	0.6905	0.033
Mof_O 	O 	0.122	0.9467	0.44282	-0.506
Mof_O 	O 	0.4468	0.6217	0.55745	-0.491
Mof_C 	C 	0.2648	0.8291	0.4374	0.298
Mof_C 	C 	0.3304	0.7646	0.4375	0.191
Mof_O 	O 	0.2394	0.8566	0.3754	0.65
Mof_H 	H 	0.2787	0.8678	0.3291	-0.105
Mof_H 	H 	0.3531	0.7433	0.394	-0.626
Mof_O 	O 	0.3585	0.7453	0.3759	0.622
Mof_H 	H 	0.3883	0.7907	0.338	-0.096
Mof_H 	H 	0.2433	0.8537	0.3953	-0.67
Mof_C 	C 	0.961	0.9121	0.2868	-0.421
Mof_H 	H 	0.1006	0.096	0.304	0.239
Mof_H 	H 	0.1389	0.9974	0.3027	0.108
Mof_C 	C 	0.9615	0.9173	0.2071	-0.289
Mof_H 	H 	0.1003	0.0881	0.1899	0.083
Mof_H 	H 	0.1336	0.9959	0.1885	-0.064
Mof_C 	C 	0.092	0.0129	0.2903	-0.611
Mof_H 	H 	0.1166	0.0704	0.3065	0.184
Mof_H 	H 	0.1317	0.9648	0.307	-0.126
Mof_C 	C 	0.5894	0.512	0.7106	-0.031
Mof_H 	H 	0.1279	0.9633	0.1935	-0.229
Mof_H 	H 	0.114	0.0688	0.193	0.303
Mof_C 	C 	0.938	0.0746	0.2895	-0.488
Mof_H 	H 	0.1328	0.043	0.3087	0.179
Mof_H 	H 	0.124	0.937	0.3045	-0.316
Mof_C 	C 	0.9438	0.0756	0.2108	-0.427
Mof_H 	H 	0.1325	0.0299	0.1949	0.281
Mof_H 	H 	0.1166	0.9297	0.1905	-0.148
Mof_O 	O 	0.622	0.4467	0.94282	-0.473
Mof_O 	O 	0.9468	0.1217	0.05745	-0.494
Mof_C 	C 	0.7648	0.3291	0.9374	0.337
Mof_C 	C 	0.8304	0.2646	0.9375	0.217
Mof_O 	O 	0.7394	0.3566	0.8754	0.647
Mof_H 	H 	0.7787	0.3678	0.8291	-0.108
Mof_H 	H 	0.8531	0.2433	0.894	-0.626
Mof_O 	O 	0.8585	0.2453	0.8759	0.615
Mof_H 	H 	0.8883	0.2907	0.838	-0.091
Mof_H 	H 	0.7433	0.3537	0.8953	-0.682
Mof_C 	C 	0.461	0.4121	0.7868	-0.031
Mof_H 	H 	0.6006	0.596	0.804	0.021
Mof_H 	H 	0.6389	0.4974	0.8027	0.028
Mof_C 	C 	0.4615	0.4173	0.7071	-0.01
Mof_H 	H 	0.6003	0.5881	0.6899	0.006
Mof_H 	H 	0.6336	0.4959	0.6885	0.016
Mof_C 	C 	0.592	0.5129	0.7903	-0.033
Mof_H 	H 	0.6166	0.5704	0.8065	0.008
Mof_H 	H 	0.6317	0.4648	0.807	0.019
Mof_C 	C 	0.0894	0.012	0.2106	-0.461
Mof_H 	H 	0.6279	0.4633	0.6935	-0.022
Mof_H 	H 	0.614	0.5688	0.693	-0.014
Mof_C 	C 	0.438	0.5746	0.7895	-0.009
Mof_H 	H 	0.6328	0.543	0.8087	-0.005
Mof_H 	H 	0.624	0.437	0.8045	-0.008
Mof_C 	C 	0.4438	0.5756	0.7108	-0.006
Mof_H 	H 	0.6325	0.5299	0.6949	0.031
Mof_H 	H 	0.6166	0.4297	0.6905	0.034
Mof_O 	O 	0.878	0.0533	0.44282	-0.512
Mof_O 	O 	0.5532	0.3783	0.55745	-0.489
Mof_C 	C 	0.7352	0.1709	0.4374	0.331
Mof_C 	C 	0.6696	0.2354	0.4375	0.177
Mof_O 	O 	0.7606	0.1434	0.3754	0.667
Mof_H 	H 	0.7213	0.1322	0.3291	-0.113
Mof_H 	H 	0.6469	0.2567	0.394	-0.631
Mof_O 	O 	0.6415	0.2547	0.3759	0.632
Mof_H 	H 	0.6117	0.2093	0.338	-0.09
Mof_H 	H 	0.7567	0.1463	0.3953	-0.708
Mof_C 	C 	0.039	0.0879	0.2868	0.359
Mof_H 	H 	0.8994	0.904	0.304	-0.169
Mof_H 	H 	0.8611	0.0026	0.3027	-0.044
Mof_C 	C 	0.0385	0.0827	0.2071	0.279
Mof_H 	H 	0.8997	0.9119	0.1899	-0.052
Mof_H 	H 	0.8664	0.0041	0.1885	0.098
Mof_C 	C 	0.908	0.9871	0.2903	0.54
Mof_H 	H 	0.8834	0.9296	0.3065	-0.172
Mof_H 	H 	0.8683	0.0352	0.307	0.183
Mof_C 	C 	0.4106	0.488	0.7106	-0.028
Mof_H 	H 	0.8721	0.0367	0.1935	0.195
Mof_H 	H 	0.886	0.9312	0.193	-0.344
Mof_C 	C 	0.062	0.9254	0.2895	0.495
Mof_H 	H 	0.8672	0.957	0.3087	-0.193
Mof_H 	H 	0.876	0.063	0.3045	0.286
Mof_C 	C 	0.0562	0.9244	0.2108	0.42
Mof_H 	H 	0.8675	0.9701	0.1949	-0.208
Mof_H 	H 	0.8834	0.0703	0.1905	0.218
Mof_O 	O 	0.378	0.5533	0.94282	-0.471
Mof_O 	O 	0.0532	0.8783	0.05745	-0.486
Mof_C 	C 	0.2352	0.6709	0.9374	0.341
Mof_C 	C 	0.1696	0.7354	0.9375	0.215
Mof_O 	O 	0.2606	0.6434	0.8754	0.647
Mof_H 	H 	0.2213	0.6322	0.8291	-0.1
Mof_H 	H 	0.1469	0.7567	0.894	-0.621
Mof_O 	O 	0.1415	0.7547	0.8759	0.614
Mof_H 	H 	0.1117	0.7093	0.838	-0.083
Mof_H 	H 	0.2567	0.6463	0.8953	-0.683
Mof_C 	C 	0.539	0.5879	0.7868	-0.025
Mof_H 	H 	0.3994	0.404	0.804	0.024
Mof_H 	H 	0.3611	0.5026	0.8027	0.028
Mof_C 	C 	0.5385	0.5827	0.7071	-0.007
Mof_H 	H 	0.3997	0.4119	0.6899	0.008
Mof_H 	H 	0.3664	0.5041	0.6885	0.015
Mof_C 	C 	0.408	0.4871	0.7903	-0.028
Mof_H 	H 	0.3834	0.4296	0.8065	0.01
Mof_H 	H 	0.3683	0.5352	0.807	0.018
Mof_C 	C 	0.9106	0.988	0.2106	0.389
Mof_H 	H 	0.3721	0.5367	0.6935	-0.022
Mof_H 	H 	0.386	0.4312	0.693	-0.013
Mof_C 	C 	0.562	0.4254	0.7895	-0.005
Mof_H 	H 	0.3672	0.457	0.8087	-0.005
Mof_H 	H 	0.376	0.563	0.8045	-0.009
Mof_C 	C 	0.5562	0.4244	0.7108	-0.003
Mof_H 	H 	0.3675	0.4701	0.6949	0.032
Mof_H 	H 	0.3834	0.5703	0.6905	0.034
Mof_O 	O 	0.0533	0.122	0.55718	-0.483
Mof_O 	O 	0.3783	0.4468	0.44255	-0.489
Mof_C 	C 	0.1709	0.2648	0.5626	0.317
Mof_C 	C 	0.2354	0.3304	0.5625	0.187
Mof_O 	O 	0.1434	0.2394	0.6246	0.661
Mof_H 	H 	0.1322	0.2787	0.6709	-0.098
Mof_H 	H 	0.2567	0.3531	0.606	-0.628
Mof_O 	O 	0.2547	0.3585	0.6241	0.627
Mof_H 	H 	0.2093	0.3883	0.662	-0.087
Mof_H 	H 	0.1463	0.2433	0.6047	-0.69
Mof_C 	C 	0.0879	0.961	0.7132	1.014
Mof_H 	H 	0.904	0.1006	0.696	0.31
Mof_H 	H 	0.0026	0.1389	0.6973	-0.209
Mof_C 	C 	0.0827	0.9615	0.7929	0.864
Mof_H 	H 	0.9119	0.1003	0.8101	0.157
Mof_H 	H 	0.0041	0.1336	0.8115	-0.278
Mof_C 	C 	0.9871	0.092	0.7097	1.004
Mof_H 	H 	0.9296	0.1166	0.6935	0.05
Mof_H 	H 	0.0352	0.1317	0.693	-0.122
Mof_C 	C 	0.488	0.5894	0.2894	-0.033
Mof_H 	H 	0.0367	0.1279	0.8065	0.122
Mof_H 	H 	0.9312	0.114	0.807	0.071
Mof_C 	C 	0.9254	0.938	0.7105	0.787
Mof_H 	H 	0.957	0.1328	0.6913	-0.283
Mof_H 	H 	0.063	0.124	0.6955	-0.02
Mof_C 	C 	0.9244	0.9438	0.7892	0.741
Mof_H 	H 	0.9701	0.1325	0.8051	-0.213
Mof_H 	H 	0.0703	0.1166	0.8095	-0.131
Mof_O 	O 	0.5533	0.622	0.05718	-0.502
Mof_O 	O 	0.8783	0.9468	0.94255	-0.496
Mof_C 	C 	0.6709	0.7648	0.0626	0.313
Mof_C 	C 	0.7354	0.8304	0.0625	0.178
Mof_O 	O 	0.6434	0.7394	0.1246	0.66
Mof_H 	H 	0.6322	0.7787	0.1709	-0.114
Mof_H 	H 	0.7567	0.8531	0.106	-0.625
Mof_O 	O 	0.7547	0.8585	0.1241	0.623
Mof_H 	H 	0.7093	0.8883	0.162	-0.098
Mof_H 	H 	0.6463	0.7433	0.1047	-0.693
Mof_C 	C 	0.5879	0.461	0.2132	-0.03
Mof_H 	H 	0.404	0.6006	0.196	0.024
Mof_H 	H 	0.5026	0.6389	0.1973	0.029
Mof_C 	C 	0.5827	0.4615	0.2929	-0.012
Mof_H 	H 	0.4119	0.6003	0.3101	0.008
Mof_H 	H 	0.5041	0.6336	0.3115	0.017
Mof_C 	C 	0.4871	0.592	0.2097	-0.034
Mof_H 	H 	0.4296	0.6166	0.1935	0.008
Mof_H 	H 	0.5352	0.6317	0.193	0.017
Mof_C 	C 	0.988	0.0894	0.7894	0.906
Mof_H 	H 	0.5367	0.6279	0.3065	-0.022
Mof_H 	H 	0.4312	0.614	0.307	-0.013
Mof_C 	C 	0.4254	0.438	0.2105	-0.01
Mof_H 	H 	0.457	0.6328	0.1913	-0.006
Mof_H 	H 	0.563	0.624	0.1955	-0.011
Mof_C 	C 	0.4244	0.4438	0.2892	-0.008
Mof_H 	H 	0.4701	0.6325	0.3051	0.031
Mof_H 	H 	0.5703	0.6166	0.3095	0.031
Mof_O 	O 	0.9467	0.878	0.55718	-0.548
Mof_O 	O 	0.6217	0.5532	0.44255	-0.491
Mof_C 	C 	0.8291	0.7352	0.5626	0.314
Mof_C 	C 	0.7646	0.6696	0.5625	0.179
Mof_O 	O 	0.8566	0.7606	0.6246	0.656
Mof_H 	H 	0.8678	0.7213	0.6709	-0.12
Mof_H 	H 	0.7433	0.6469	0.606	-0.629
Mof_O 	O 	0.7453	0.6415	0.6241	0.628
Mof_H 	H 	0.7907	0.6117	0.662	-0.098
Mof_H 	H 	0.8537	0.7567	0.6047	-0.691
Mof_C 	C 	0.9121	0.039	0.7132	-1.096
Mof_H 	H 	0.096	0.8994	0.696	-0.272
Mof_H 	H 	0.9974	0.8611	0.6973	0.265
Mof_C 	C 	0.9173	0.0385	0.7929	-0.903
Mof_H 	H 	0.0881	0.8997	0.8101	-0.151
Mof_H 	H 	0.9959	0.8664	0.8115	0.312
Mof_C 	C 	0.0129	0.908	0.7097	-1.06
Mof_H 	H 	0.0704	0.8834	0.6935	-0.022
Mof_H 	H 	0.9648	0.8683	0.693	0.148
Mof_C 	C 	0.512	0.4106	0.2894	-0.027
Mof_H 	H 	0.9633	0.8721	0.8065	-0.201
Mof_H 	H 	0.0688	0.886	0.807	-0.096
Mof_C 	C 	0.0746	0.062	0.7105	-0.846
Mof_H 	H 	0.043	0.8672	0.6913	0.261
Mof_H 	H 	0.937	0.876	0.6955	0.008
Mof_C 	C 	0.0756	0.0562	0.7892	-0.794
Mof_H 	H 	0.0299	0.8675	0.8051	0.29
Mof_H 	H 	0.9297	0.8834	0.8095	0.225
Mof_O 	O 	0.4467	0.378	0.05718	-0.499
Mof_O 	O 	0.1217	0.0532	0.94255	-0.445
Mof_C 	C 	0.3291	0.2352	0.0626	0.313
Mof_C 	C 	0.2646	0.1696	0.0625	0.199
Mof_O 	O 	0.3566	0.2606	0.1246	0.661
Mof_H 	H 	0.3678	0.2213	0.1709	-0.107
Mof_H 	H 	0.2433	0.1469	0.106	-0.635
Mof_O 	O 	0.2453	0.1415	0.1241	0.627
Mof_H 	H 	0.2907	0.1117	0.162	-0.091
Mof_H 	H 	0.3537	0.2567	0.1047	-0.69
Mof_C 	C 	0.4121	0.539	0.2132	-0.024
Mof_H 	H 	0.596	0.3994	0.196	0.022
Mof_H 	H 	0.4974	0.3611	0.1973	0.027
Mof_C 	C 	0.4173	0.5385	0.2929	-0.006
Mof_H 	H 	0.5881	0.3997	0.3101	0.007
Mof_H 	H 	0.4959	0.3664	0.3115	0.016
Mof_C 	C 	0.5129	0.408	0.2097	-0.027
Mof_H 	H 	0.5704	0.3834	0.1935	0.008
Mof_H 	H 	0.4648	0.3683	0.193	0.018
Mof_C 	C 	0.012	0.9106	0.7894	-0.976
Mof_H 	H 	0.4633	0.3721	0.3065	-0.02
Mof_H 	H 	0.5688	0.386	0.307	-0.013
Mof_C 	C 	0.5746	0.562	0.2105	-0.004
Mof_H 	H 	0.543	0.3672	0.1913	-0.006
Mof_H 	H 	0.437	0.376	0.1955	-0.008
Mof_C 	C 	0.5756	0.5562	0.2892	-0.002
Mof_H 	H 	0.5299	0.3675	0.3051	0.029
Mof_H 	H 	0.4297	0.3834	0.3095	0.033
Mof_O 	O 	0.878	0.0533	0.55718	-0.512
Mof_O 	O 	0.5532	0.3783	0.44255	-0.489
Mof_C 	C 	0.7352	0.1709	0.5626	0.332
Mof_C 	C 	0.6696	0.2354	0.5625	0.177
Mof_O 	O 	0.7606	0.1434	0.6246	0.667
Mof_H 	H 	0.7213	0.1322	0.6709	-0.112
Mof_H 	H 	0.6469	0.2567	0.606	-0.631
Mof_O 	O 	0.6415	0.2547	0.6241	0.632
Mof_H 	H 	0.6117	0.2093	0.662	-0.089
Mof_H 	H 	0.7567	0.1463	0.6047	-0.708
Mof_C 	C 	0.039	0.0879	0.7132	0.359
Mof_H 	H 	0.8994	0.904	0.696	-0.169
Mof_H 	H 	0.8611	0.0026	0.6973	-0.044
Mof_C 	C 	0.0385	0.0827	0.7929	0.279
Mof_H 	H 	0.8997	0.9119	0.8101	-0.053
Mof_H 	H 	0.8664	0.0041	0.8115	0.096
Mof_C 	C 	0.908	0.9871	0.7097	0.54
Mof_H 	H 	0.8834	0.9296	0.6935	-0.172
Mof_H 	H 	0.8683	0.0352	0.693	0.183
Mof_C 	C 	0.4106	0.488	0.2894	-0.029
Mof_H 	H 	0.8721	0.0367	0.8065	0.195
Mof_H 	H 	0.886	0.9312	0.807	-0.345
Mof_C 	C 	0.062	0.9254	0.7105	0.496
Mof_H 	H 	0.8672	0.957	0.6913	-0.193
Mof_H 	H 	0.876	0.063	0.6955	0.286
Mof_C 	C 	0.0562	0.9244	0.7892	0.42
Mof_H 	H 	0.8675	0.9701	0.8051	-0.204
Mof_H 	H 	0.8834	0.0703	0.8095	0.222
Mof_O 	O 	0.378	0.5533	0.05718	-0.5
Mof_O 	O 	0.0532	0.8783	0.94255	-0.459
Mof_C 	C 	0.2352	0.6709	0.0626	0.316
Mof_C 	C 	0.1696	0.7354	0.0625	0.187
Mof_O 	O 	0.2606	0.6434	0.1246	0.66
Mof_H 	H 	0.2213	0.6322	0.1709	-0.106
Mof_H 	H 	0.1469	0.7567	0.106	-0.626
Mof_O 	O 	0.1415	0.7547	0.1241	0.625
Mof_H 	H 	0.1117	0.7093	0.162	-0.089
Mof_H 	H 	0.2567	0.6463	0.1047	-0.691
Mof_C 	C 	0.539	0.5879	0.2132	-0.024
Mof_H 	H 	0.3994	0.404	0.196	0.024
Mof_H 	H 	0.3611	0.5026	0.1973	0.028
Mof_C 	C 	0.5385	0.5827	0.2929	-0.007
Mof_H 	H 	0.3997	0.4119	0.3101	0.008
Mof_H 	H 	0.3664	0.5041	0.3115	0.016
Mof_C 	C 	0.408	0.4871	0.2097	-0.028
Mof_H 	H 	0.3834	0.4296	0.1935	0.009
Mof_H 	H 	0.3683	0.5352	0.193	0.017
Mof_C 	C 	0.9106	0.988	0.7894	0.389
Mof_H 	H 	0.3721	0.5367	0.3065	-0.021
Mof_H 	H 	0.386	0.4312	0.307	-0.012
Mof_C 	C 	0.562	0.4254	0.2105	-0.005
Mof_H 	H 	0.3672	0.457	0.1913	-0.006
Mof_H 	H 	0.376	0.563	0.1955	-0.01
Mof_C 	C 	0.5562	0.4244	0.2892	-0.003
Mof_H 	H 	0.3675	0.4701	0.3051	0.031
Mof_H 	H 	0.3834	0.5703	0.3095	0.032
Mof_O 	O 	0.122	0.9467	0.55718	-0.506
Mof_O 	O 	0.4468	0.6217	0.44255	-0.491
Mof_C 	C 	0.2648	0.8291	0.5626	0.299
Mof_C 	C 	0.3304	0.7646	0.5625	0.191
Mof_O 	O 	0.2394	0.8566	0.6246	0.65
Mof_H 	H 	0.2787	0.8678	0.6709	-0.104
Mof_H 	H 	0.3531	0.7433	0.606	-0.626
Mof_O 	O 	0.3585	0.7453	0.6241	0.622
Mof_H 	H 	0.3883	0.7907	0.662	-0.095
Mof_H 	H 	0.2433	0.8537	0.6047	-0.67
Mof_C 	C 	0.961	0.9121	0.7132	-0.421
Mof_H 	H 	0.1006	0.096	0.696	0.24
Mof_H 	H 	0.1389	0.9974	0.6973	0.108
Mof_C 	C 	0.9615	0.9173	0.7929	-0.29
Mof_H 	H 	0.1003	0.0881	0.8101	0.082
Mof_H 	H 	0.1336	0.9959	0.8115	-0.066
Mof_C 	C 	0.092	0.0129	0.7097	-0.611
Mof_H 	H 	0.1166	0.0704	0.6935	0.185
Mof_H 	H 	0.1317	0.9648	0.693	-0.126
Mof_C 	C 	0.5894	0.512	0.2894	-0.032
Mof_H 	H 	0.1279	0.9633	0.8065	-0.23
Mof_H 	H 	0.114	0.0688	0.807	0.302
Mof_C 	C 	0.938	0.0746	0.7105	-0.489
Mof_H 	H 	0.1328	0.043	0.6913	0.179
Mof_H 	H 	0.124	0.937	0.6955	-0.316
Mof_C 	C 	0.9438	0.0756	0.7892	-0.427
Mof_H 	H 	0.1325	0.0299	0.8051	0.285
Mof_H 	H 	0.1166	0.9297	0.8095	-0.144
Mof_O 	O 	0.622	0.4467	0.05718	-0.501
Mof_O 	O 	0.9468	0.1217	0.94255	-0.467
Mof_C 	C 	0.7648	0.3291	0.0626	0.311
Mof_C 	C 	0.8304	0.2646	0.0625	0.189
Mof_O 	O 	0.7394	0.3566	0.1246	0.66
Mof_H 	H 	0.7787	0.3678	0.1709	-0.114
Mof_H 	H 	0.8531	0.2433	0.106	-0.632
Mof_O 	O 	0.8585	0.2453	0.1241	0.626
Mof_H 	H 	0.8883	0.2907	0.162	-0.097
Mof_H 	H 	0.7433	0.3537	0.1047	-0.691
Mof_C 	C 	0.461	0.4121	0.2132	-0.03
Mof_H 	H 	0.6006	0.596	0.196	0.021
Mof_H 	H 	0.6389	0.4974	0.1973	0.028
Mof_C 	C 	0.4615	0.4173	0.2929	-0.01
Mof_H 	H 	0.6003	0.5881	0.3101	0.007
Mof_H 	H 	0.6336	0.4959	0.3115	0.017
Mof_C 	C 	0.592	0.5129	0.2097	-0.033
Mof_H 	H 	0.6166	0.5704	0.1935	0.007
Mof_H 	H 	0.6317	0.4648	0.193	0.018
Mof_C 	C 	0.0894	0.012	0.7894	-0.461
Mof_H 	H 	0.6279	0.4633	0.3065	-0.021
Mof_H 	H 	0.614	0.5688	0.307	-0.014
Mof_C 	C 	0.438	0.5746	0.2105	-0.009
Mof_H 	H 	0.6328	0.543	0.1913	-0.006
Mof_H 	H 	0.624	0.437	0.1955	-0.008
Mof_C 	C 	0.4438	0.5756	0.2892	-0.007
Mof_H 	H 	0.6325	0.5299	0.3051	0.029
Mof_H 	H 	0.6166	0.4297	0.3095	0.032
Mof_Zn	Zn	2.02796e-33	0	0.42277	1.241
Mof_N 	N 	-1.4034e-33	0	0.3143	-0.075
Mof_N 	N 	-4.28518e-33	-2.91104e-33	0.3204	0.018
Mof_N 	N 	-1.39716e-33	0	0.3156	-0.057
Mof_N 	N 	8.98446e-34	0	0.1873	-0.107
Mof_Zn	Zn	0.5	0.5	0.92277	1.216
Mof_N 	N 	0.5	0.5	0.8143	-0.088
Mof_N 	N 	0.5	0.5	0.8204	0.001
Mof_N 	N 	0.5	0.5	0.8156	-0.072
Mof_N 	N 	0.5	0.5	0.6873	-0.129
Mof_Zn	Zn	-3.05321e-33	-5.82209e-33	0.57723	1.241
Mof_N 	N 	-8.35499e-33	0	0.6857	-0.075
Mof_N 	N 	3.25993e-33	0	0.6796	0.018
Mof_N 	N 	-8.36122e-33	0	0.6844	-0.057
Mof_N 	N 	-7.74579e-33	-1.16442e-32	0.8127	-0.107
Mof_Zn	Zn	0.5	0.5	0.07723	1.211
Mof_N 	N 	0.5	0.5	0.1857	-0.088
Mof_N 	N 	0.5	0.5	0.1796	0.001
Mof_N 	N 	0.5	0.5	0.1844	-0.072
Mof_N 	N 	0.5	0.5	0.3127	-0.129
Mof_Zn	Zn	0.5	0.5	0.57728	1.214
Mof_N 	N 	0.5	0.5	0.6808	-0.042
Mof_Zn	Zn	-3.57062e-34	7.27761e-34	0.07728	1.236
Mof_N 	N 	3.77831e-33	0	0.1808	-0.013
Mof_Zn	Zn	0.5	0.5	0.42272	1.214
Mof_N 	N 	0.5	0.5	0.3192	-0.042
Mof_Zn	Zn	4.42613e-33	0	0.92272	1.241
Mof_N 	N 	3.92956e-33	-1.16442e-32	0.8192	-0.013
Mof_C 	C 	0.9229	0.8472	0.5	0.521
Mof_C 	C 	0.8621	0.7704	0.5	-0.35
Mof_C 	C 	0.731	0.6398	0.5	-0.24
Mof_C 	C 	0.6518	0.5766	0.5	0.462
Mof_C 	C 	0.4229	0.3472	-0	0.475
Mof_C 	C 	0.3621	0.2704	-0	-0.356
Mof_C 	C 	0.231	0.1398	-0	-0.27
Mof_C 	C 	0.1518	0.0766	-0	0.437
Mof_C 	C 	0.0771	0.1528	0.5	0.512
Mof_C 	C 	0.1379	0.2296	0.5	-0.328
Mof_C 	C 	0.269	0.3602	0.5	-0.237
Mof_C 	C 	0.3482	0.4234	0.5	0.465
Mof_C 	C 	0.5771	0.6528	-0	0.474
Mof_C 	C 	0.6379	0.7296	-0	-0.366
Mof_C 	C 	0.769	0.8602	-0	-0.275
Mof_C 	C 	0.8482	0.9234	-0	0.428
Mof_C 	C 	0.1528	0.9229	0.5	0.506
Mof_C 	C 	0.2296	0.8621	0.5	-0.325
Mof_C 	C 	0.3602	0.731	0.5	-0.245
Mof_C 	C 	0.4234	0.6518	0.5	0.465
Mof_C 	C 	0.6528	0.4229	-0	0.474
Mof_C 	C 	0.7296	0.3621	-0	-0.361
Mof_C 	C 	0.8602	0.231	-0	-0.273
Mof_C 	C 	0.9234	0.1518	-0	0.433
Mof_C 	C 	0.8472	0.0771	0.5	0.525
Mof_C 	C 	0.7704	0.1379	0.5	-0.349
Mof_C 	C 	0.6398	0.269	0.5	-0.233
Mof_C 	C 	0.5766	0.3482	0.5	0.462
Mof_C 	C 	0.3472	0.5771	-0	0.475
Mof_C 	C 	0.2704	0.6379	-0	-0.361
Mof_C 	C 	0.1398	0.769	-0	-0.268
Mof_C 	C 	0.0766	0.8482	-0	0.431
_end
