data_functionalizedCrystal
_audit_creation_method	'EQeq! by Chris Wilmer'
_symmetry_space_group_name_H-M	'P1'
_symmetry_Int_Tables_number	1
_symmetry_cell_setting	triclinic
loop_
_symmetry_equiv_pos_as_xyz
  x,y,z
_cell_length_a	18.2657
_cell_length_b	18.2657
_cell_length_c	22.3708
_cell_angle_alpha	90
_cell_angle_beta	90
_cell_angle_gamma	120
loop_
_atom_site_label
_atom_site_type_symbol
_atom_site_fract_x
_atom_site_fract_y
_atom_site_fract_z
_atom_site_charge
Mof_O 	O 	0.4713	0.822	0.0889	-0.601
Mof_C 	C 	0.5373	0.9925	0.0469	0.234
Mof_C 	C 	0.505	0.9337	0.999	0.437
Mof_O 	O 	0.5891	0.9972	0.093	-0.08
Mof_O 	O 	0.5211	0.888	0.973	-0.204
Mof_O 	O 	0.13797	0.15533	0.42223	-0.6
Mof_C 	C 	0.20397	0.32583	0.38023	0.2
Mof_C 	C 	0.17167	0.26703	0.33233	0.408
Mof_O 	O 	0.25577	0.33053	0.42633	-0.081
Mof_O 	O 	0.18777	0.22133	0.30633	-0.204
Mof_O 	O 	0.80463	0.48867	0.75557	-0.595
Mof_C 	C 	0.87063	0.65917	0.71357	0.2
Mof_C 	C 	0.83833	0.60037	0.66567	0.405
Mof_O 	O 	0.92243	0.66387	0.75967	-0.076
Mof_O 	O 	0.85443	0.55467	0.63967	-0.197
Mof_O 	O 	0.178	0.6493	0.0889	-0.585
Mof_C 	C 	0.0075	0.5448	0.0469	0.161
Mof_C 	C 	0.0663	0.5713	0.999	0.342
Mof_O 	O 	0.0028	0.5919	0.093	-0.076
Mof_O 	O 	0.112	0.6331	0.973	-0.187
Mof_O 	O 	0.84467	0.98263	0.42223	-0.582
Mof_C 	C 	0.67417	0.87813	0.38023	0.188
Mof_C 	C 	0.73297	0.90463	0.33233	0.387
Mof_O 	O 	0.66947	0.92523	0.42633	-0.074
Mof_O 	O 	0.77867	0.96643	0.30633	-0.187
Mof_O 	O 	0.51133	0.31597	0.75557	-0.594
Mof_C 	C 	0.34083	0.21147	0.71357	0.19
Mof_C 	C 	0.39963	0.23797	0.66567	0.393
Mof_O 	O 	0.33613	0.25857	0.75967	-0.08
Mof_O 	O 	0.44533	0.29977	0.63967	-0.196
Mof_O 	O 	0.3507	0.5287	0.0889	-0.596
Mof_C 	C 	0.4552	0.4627	0.0469	0.194
Mof_C 	C 	0.4287	0.495	0.999	0.399
Mof_O 	O 	0.4081	0.4109	0.093	-0.081
Mof_O 	O 	0.3669	0.4789	0.973	-0.199
Mof_O 	O 	0.01737	0.86203	0.42223	-0.599
Mof_C 	C 	0.12187	0.79603	0.38023	0.193
Mof_C 	C 	0.09537	0.82833	0.33233	0.397
Mof_O 	O 	0.07477	0.74423	0.42633	-0.082
Mof_O 	O 	0.03357	0.81223	0.30633	-0.199
Mof_O 	O 	0.68403	0.19537	0.75557	-0.596
Mof_C 	C 	0.78853	0.12937	0.71357	0.195
Mof_C 	C 	0.76203	0.16167	0.66567	0.4
Mof_O 	O 	0.74143	0.07757	0.75967	-0.081
Mof_O 	O 	0.70023	0.14557	0.63967	-0.199
Mof_O 	O 	0.822	0.4713	0.9111	-0.602
Mof_C 	C 	0.9925	0.5373	0.9531	0.234
Mof_C 	C 	0.9337	0.505	0.001	0.437
Mof_O 	O 	0.9972	0.5891	0.907	-0.08
Mof_O 	O 	0.888	0.5211	0.027	-0.204
Mof_O 	O 	0.48867	0.80463	0.24443	-0.595
Mof_C 	C 	0.65917	0.87063	0.28643	0.2
Mof_C 	C 	0.60037	0.83833	0.33433	0.405
Mof_O 	O 	0.66387	0.92243	0.24033	-0.076
Mof_O 	O 	0.55467	0.85443	0.36033	-0.197
Mof_O 	O 	0.15533	0.13797	0.57777	-0.6
Mof_C 	C 	0.32583	0.20397	0.61977	0.2
Mof_C 	C 	0.26703	0.17167	0.66767	0.408
Mof_O 	O 	0.33053	0.25577	0.57367	-0.081
Mof_O 	O 	0.22133	0.18777	0.69367	-0.204
Mof_O 	O 	0.6493	0.178	0.9111	-0.585
Mof_C 	C 	0.5448	0.0075	0.9531	0.161
Mof_C 	C 	0.5713	0.0663	0.001	0.342
Mof_O 	O 	0.5919	0.0028	0.907	-0.076
Mof_O 	O 	0.6331	0.112	0.027	-0.187
Mof_O 	O 	0.31597	0.51133	0.24443	-0.594
Mof_C 	C 	0.21147	0.34083	0.28643	0.19
Mof_C 	C 	0.23797	0.39963	0.33433	0.393
Mof_O 	O 	0.25857	0.33613	0.24033	-0.08
Mof_O 	O 	0.29977	0.44533	0.36033	-0.196
Mof_O 	O 	0.98263	0.84467	0.57777	-0.582
Mof_C 	C 	0.87813	0.67417	0.61977	0.188
Mof_C 	C 	0.90463	0.73297	0.66767	0.387
Mof_O 	O 	0.92523	0.66947	0.57367	-0.074
Mof_O 	O 	0.96643	0.77867	0.69367	-0.187
Mof_O 	O 	0.5287	0.3507	0.9111	-0.596
Mof_C 	C 	0.4627	0.4552	0.9531	0.194
Mof_C 	C 	0.495	0.4287	0.001	0.399
Mof_O 	O 	0.4109	0.4081	0.907	-0.081
Mof_O 	O 	0.4789	0.3669	0.027	-0.199
Mof_O 	O 	0.19537	0.68403	0.24443	-0.596
Mof_C 	C 	0.12937	0.78853	0.28643	0.195
Mof_C 	C 	0.16167	0.76203	0.33433	0.4
Mof_O 	O 	0.07757	0.74143	0.24033	-0.081
Mof_O 	O 	0.14557	0.70023	0.36033	-0.199
Mof_O 	O 	0.86203	0.01737	0.57777	-0.599
Mof_C 	C 	0.79603	0.12187	0.61977	0.193
Mof_C 	C 	0.82833	0.09537	0.66767	0.397
Mof_O 	O 	0.74423	0.07477	0.57367	-0.082
Mof_O 	O 	0.81223	0.03357	0.69367	-0.199
Mof_O 	O 	0.5287	0.178	0.9111	-0.586
Mof_C 	C 	0.4627	0.0075	0.9531	0.16
Mof_C 	C 	0.495	0.0663	0.001	0.343
Mof_O 	O 	0.4109	0.0028	0.907	-0.078
Mof_O 	O 	0.4789	0.112	0.027	-0.189
Mof_O 	O 	0.19537	0.51133	0.24443	-0.595
Mof_C 	C 	0.12937	0.34083	0.28643	0.19
Mof_C 	C 	0.16167	0.39963	0.33433	0.393
Mof_O 	O 	0.07757	0.33613	0.24033	-0.082
Mof_O 	O 	0.14557	0.44533	0.36033	-0.198
Mof_O 	O 	0.86203	0.84467	0.57777	-0.588
Mof_C 	C 	0.79603	0.67417	0.61977	0.188
Mof_C 	C 	0.82833	0.73297	0.66767	0.388
Mof_O 	O 	0.74423	0.66947	0.57367	-0.077
Mof_O 	O 	0.81223	0.77867	0.69367	-0.191
Mof_O 	O 	0.822	0.3507	0.9111	-0.602
Mof_C 	C 	0.9925	0.4552	0.9531	0.234
Mof_C 	C 	0.9337	0.4287	0.001	0.438
Mof_O 	O 	0.9972	0.4081	0.907	-0.081
Mof_O 	O 	0.888	0.3669	0.027	-0.206
Mof_O 	O 	0.48867	0.68403	0.24443	-0.596
Mof_C 	C 	0.65917	0.78853	0.28643	0.2
Mof_C 	C 	0.60037	0.76203	0.33433	0.405
Mof_O 	O 	0.66387	0.74143	0.24033	-0.078
Mof_O 	O 	0.55467	0.70023	0.36033	-0.199
Mof_O 	O 	0.15533	0.01737	0.57777	-0.606
Mof_C 	C 	0.32583	0.12187	0.61977	0.2
Mof_C 	C 	0.26703	0.09537	0.66767	0.409
Mof_O 	O 	0.33053	0.07477	0.57367	-0.085
Mof_O 	O 	0.22133	0.03357	0.69367	-0.207
Mof_O 	O 	0.6493	0.4713	0.9111	-0.594
Mof_C 	C 	0.5448	0.5373	0.9531	0.195
Mof_C 	C 	0.5713	0.505	0.001	0.397
Mof_O 	O 	0.5919	0.5891	0.907	-0.078
Mof_O 	O 	0.6331	0.5211	0.027	-0.196
Mof_O 	O 	0.31597	0.80463	0.24443	-0.594
Mof_C 	C 	0.21147	0.87063	0.28643	0.196
Mof_C 	C 	0.23797	0.83833	0.33433	0.399
Mof_O 	O 	0.25857	0.92243	0.24033	-0.076
Mof_O 	O 	0.29977	0.85443	0.36033	-0.196
Mof_O 	O 	0.98263	0.13797	0.57777	-0.587
Mof_C 	C 	0.87813	0.20397	0.61977	0.194
Mof_C 	C 	0.90463	0.17167	0.66767	0.395
Mof_O 	O 	0.92523	0.25577	0.57367	-0.075
Mof_O 	O 	0.96643	0.18777	0.69367	-0.193
Mof_O 	O 	0.178	0.5287	0.0889	-0.586
Mof_C 	C 	0.0075	0.4627	0.0469	0.16
Mof_C 	C 	0.0663	0.495	0.999	0.343
Mof_O 	O 	0.0028	0.4109	0.093	-0.078
Mof_O 	O 	0.112	0.4789	0.973	-0.189
Mof_O 	O 	0.84467	0.86203	0.42223	-0.588
Mof_C 	C 	0.67417	0.79603	0.38023	0.188
Mof_C 	C 	0.73297	0.82833	0.33233	0.388
Mof_O 	O 	0.66947	0.74423	0.42633	-0.077
Mof_O 	O 	0.77867	0.81223	0.30633	-0.191
Mof_O 	O 	0.51133	0.19537	0.75557	-0.595
Mof_C 	C 	0.34083	0.12937	0.71357	0.19
Mof_C 	C 	0.39963	0.16167	0.66567	0.393
Mof_O 	O 	0.33613	0.07757	0.75967	-0.082
Mof_O 	O 	0.44533	0.14557	0.63967	-0.198
Mof_O 	O 	0.3507	0.822	0.0889	-0.602
Mof_C 	C 	0.4552	0.9925	0.0469	0.234
Mof_C 	C 	0.4287	0.9337	0.999	0.438
Mof_O 	O 	0.4081	0.9972	0.093	-0.081
Mof_O 	O 	0.3669	0.888	0.973	-0.206
Mof_O 	O 	0.01737	0.15533	0.42223	-0.606
Mof_C 	C 	0.12187	0.32583	0.38023	0.2
Mof_C 	C 	0.09537	0.26703	0.33233	0.409
Mof_O 	O 	0.07477	0.33053	0.42633	-0.085
Mof_O 	O 	0.03357	0.22133	0.30633	-0.207
Mof_O 	O 	0.68403	0.48867	0.75557	-0.596
Mof_C 	C 	0.78853	0.65917	0.71357	0.2
Mof_C 	C 	0.76203	0.60037	0.66567	0.405
Mof_O 	O 	0.74143	0.66387	0.75967	-0.078
Mof_O 	O 	0.70023	0.55467	0.63967	-0.199
Mof_O 	O 	0.4713	0.6493	0.0889	-0.594
Mof_C 	C 	0.5373	0.5448	0.0469	0.195
Mof_C 	C 	0.505	0.5713	0.999	0.397
Mof_O 	O 	0.5891	0.5919	0.093	-0.078
Mof_O 	O 	0.5211	0.6331	0.973	-0.196
Mof_O 	O 	0.13797	0.98263	0.42223	-0.587
Mof_C 	C 	0.20397	0.87813	0.38023	0.194
Mof_C 	C 	0.17167	0.90463	0.33233	0.395
Mof_O 	O 	0.25577	0.92523	0.42633	-0.075
Mof_O 	O 	0.18777	0.96643	0.30633	-0.193
Mof_O 	O 	0.80463	0.31597	0.75557	-0.594
Mof_C 	C 	0.87063	0.21147	0.71357	0.196
Mof_C 	C 	0.83833	0.23797	0.66567	0.399
Mof_O 	O 	0.92243	0.25857	0.75967	-0.076
Mof_O 	O 	0.85443	0.29977	0.63967	-0.196
Mof_Zn	Zn	0.33333	0.66667	0.07962	1.151
Mof_Zn	Zn	-0	0	0.41295	1.143
Mof_Zn	Zn	0.66667	0.33333	0.74629	1.152
Mof_Zn	Zn	0.66667	0.33333	0.92038	1.151
Mof_Zn	Zn	0.33333	0.66667	0.25371	1.152
Mof_Zn	Zn	-0	0	0.58705	1.143
Mof_Zn	Zn	0.44924	0.72462	0.1377	1.149
Mof_Zn	Zn	0.11591	0.05795	0.47103	1.146
Mof_Zn	Zn	0.78257	0.39129	0.80437	1.149
Mof_Zn	Zn	0.27538	0.72462	0.1377	1.149
Mof_Zn	Zn	0.94205	0.05795	0.47103	1.151
Mof_Zn	Zn	0.60871	0.39129	0.80437	1.149
Mof_Zn	Zn	0.27538	0.55076	0.1377	1.148
Mof_Zn	Zn	0.94205	0.88409	0.47103	1.154
Mof_Zn	Zn	0.60871	0.21743	0.80437	1.148
Mof_Zn	Zn	0.72462	0.44924	0.8623	1.149
Mof_Zn	Zn	0.39129	0.78257	0.19563	1.149
Mof_Zn	Zn	0.05795	0.11591	0.52897	1.146
Mof_Zn	Zn	0.72462	0.27538	0.8623	1.149
Mof_Zn	Zn	0.39129	0.60871	0.19563	1.149
Mof_Zn	Zn	0.05795	0.94205	0.52897	1.151
Mof_Zn	Zn	0.55076	0.27538	0.8623	1.148
Mof_Zn	Zn	0.21743	0.60871	0.19563	1.148
Mof_Zn	Zn	0.88409	0.94205	0.52897	1.154
Mof_O 	O 	0.33333	0.66667	0.16667	-1.542
Mof_O 	O 	-7.8108e-33	0	0.5	-1.559
Mof_O 	O 	0.66667	0.33333	0.83333	-1.542
Mof_O 	O 	0.43125	0.8625	0.1295	-0.587
Mof_O 	O 	0.391	0.782	0.0492	-0.615
Mof_C 	C 	0.464	0.928	0.0385	-1.025
Mof_C 	C 	0.4259	0.8518	0.0736	1.452
Mof_O 	O 	0.09792	0.19583	0.46283	-0.586
Mof_O 	O 	0.05767	0.11533	0.38253	-0.617
Mof_C 	C 	0.13067	0.26133	0.37183	-0.966
Mof_C 	C 	0.09257	0.18513	0.40693	1.43
Mof_O 	O 	0.76458	0.52917	0.79617	-0.581
Mof_O 	O 	0.72433	0.44867	0.71587	-0.608
Mof_C 	C 	0.79733	0.59467	0.70517	-0.956
Mof_C 	C 	0.75923	0.51847	0.74027	1.417
Mof_O 	O 	0.1375	0.56875	0.1295	-0.573
Mof_O 	O 	0.218	0.609	0.0492	-0.596
Mof_C 	C 	0.072	0.536	0.0385	-0.839
Mof_C 	C 	0.1482	0.5741	0.0736	1.362
Mof_O 	O 	0.80417	0.90208	0.46283	-0.574
Mof_O 	O 	0.88467	0.94233	0.38253	-0.593
Mof_C 	C 	0.73867	0.86933	0.37183	-0.918
Mof_C 	C 	0.81487	0.90743	0.40693	1.39
Mof_O 	O 	0.47083	0.23542	0.79617	-0.581
Mof_O 	O 	0.55133	0.27567	0.71587	-0.606
Mof_C 	C 	0.40533	0.20267	0.70517	-0.933
Mof_C 	C 	0.48153	0.24077	0.74027	1.407
Mof_O 	O 	0.43125	0.56875	0.1295	-0.581
Mof_O 	O 	0.391	0.609	0.0492	-0.607
Mof_C 	C 	0.464	0.536	0.0385	-0.942
Mof_C 	C 	0.4259	0.5741	0.0736	1.411
Mof_O 	O 	0.09792	0.90208	0.46283	-0.579
Mof_O 	O 	0.05767	0.94233	0.38253	-0.603
Mof_C 	C 	0.13067	0.86933	0.37183	-0.939
Mof_C 	C 	0.09257	0.90743	0.40693	1.407
Mof_O 	O 	0.76458	0.23542	0.79617	-0.581
Mof_O 	O 	0.72433	0.27567	0.71587	-0.607
Mof_C 	C 	0.79733	0.20267	0.70517	-0.946
Mof_C 	C 	0.75923	0.24077	0.74027	1.413
Mof_O 	O 	0.8625	0.43125	0.8705	-0.587
Mof_O 	O 	0.782	0.391	0.9508	-0.615
Mof_C 	C 	0.928	0.464	0.9615	-1.025
Mof_C 	C 	0.8518	0.4259	0.9264	1.452
Mof_O 	O 	0.52917	0.76458	0.20383	-0.581
Mof_O 	O 	0.44867	0.72433	0.28413	-0.608
Mof_C 	C 	0.59467	0.79733	0.29483	-0.956
Mof_C 	C 	0.51847	0.75923	0.25973	1.417
Mof_O 	O 	0.19583	0.09792	0.53717	-0.586
Mof_O 	O 	0.11533	0.05767	0.61747	-0.617
Mof_C 	C 	0.26133	0.13067	0.62817	-0.966
Mof_C 	C 	0.18513	0.09257	0.59307	1.43
Mof_O 	O 	0.56875	0.1375	0.8705	-0.573
Mof_O 	O 	0.609	0.218	0.9508	-0.596
Mof_C 	C 	0.536	0.072	0.9615	-0.839
Mof_C 	C 	0.5741	0.1482	0.9264	1.362
Mof_O 	O 	0.23542	0.47083	0.20383	-0.581
Mof_O 	O 	0.27567	0.55133	0.28413	-0.606
Mof_C 	C 	0.20267	0.40533	0.29483	-0.933
Mof_C 	C 	0.24077	0.48153	0.25973	1.407
Mof_O 	O 	0.90208	0.80417	0.53717	-0.574
Mof_O 	O 	0.94233	0.88467	0.61747	-0.593
Mof_C 	C 	0.86933	0.73867	0.62817	-0.918
Mof_C 	C 	0.90743	0.81487	0.59307	1.39
Mof_O 	O 	0.56875	0.43125	0.8705	-0.581
Mof_O 	O 	0.609	0.391	0.9508	-0.607
Mof_C 	C 	0.536	0.464	0.9615	-0.942
Mof_C 	C 	0.5741	0.4259	0.9264	1.411
Mof_O 	O 	0.23542	0.76458	0.20383	-0.581
Mof_O 	O 	0.27567	0.72433	0.28413	-0.607
Mof_C 	C 	0.20267	0.79733	0.29483	-0.946
Mof_C 	C 	0.24077	0.75923	0.25973	1.413
Mof_O 	O 	0.90208	0.09792	0.53717	-0.579
Mof_O 	O 	0.94233	0.05767	0.61747	-0.603
Mof_C 	C 	0.86933	0.13067	0.62817	-0.939
Mof_C 	C 	0.90743	0.09257	0.59307	1.407
_end
