# CIF file generated by openbabel 2.4.1, see http://openbabel.sf.net
data_I
_chemical_name_common 'image0'
_cell_length_a 15.398
_cell_length_b 15.398
_cell_length_c 25.456
_cell_angle_alpha 90
_cell_angle_beta 90
_cell_angle_gamma 120
_space_group_name_H-M_alt 'P 1'
_space_group_name_Hall 'P 1'
loop_
    _symmetry_equiv_pos_as_xyz
    x,y,z
loop_
    _atom_site_label
    _atom_site_type_symbol
    _atom_site_fract_x
    _atom_site_fract_y
    _atom_site_fract_z
    _atom_site_occupancy
    C1      C    0.55500   0.01330   0.78740   1.000
    H1      H    0.61880   0.05370   0.77360   1.000
    C2      C    0.11130   0.11950   0.13040   1.000
    C3      C    0.26050   0.11410   0.11990   1.000
    C4      C    0.21140   0.03270   0.08490   1.000
    H2      H    0.24630   0.00610   0.06790   1.000
    C5      C    0.11270   0.99480   0.07670   1.000
    C6      C    0.05820   0.03550   0.09970   1.000
    H3      H    0.98950   0.00720   0.09440   1.000
    C7      C    0.10180   0.25990   0.15990   1.000
    C8      C    0.11170   0.29750   0.20880   1.000
    H4      H    0.08450   0.25400   0.23710   1.000
    C9      C    0.37150   0.15840   0.12960   1.000
    C10     C    0.16110   0.39880   0.21730   1.000
    H5      H    0.17160   0.42380   0.25140   1.000
    C11     C    0.17430   0.68250   0.93080   1.000
    C12     C    0.15340   0.75070   0.96160   1.000
    C13     C    0.11090   0.79800   0.04430   1.000
    H6      H    0.10470   0.79080   0.08060   1.000
    C14     C    0.54470   0.00420   0.84170   1.000
    H7      H    0.59930   0.04180   0.86360   1.000
    C15     C    0.09220   0.86170   0.02130   1.000
    C16     C    0.14190   0.82490   0.94000   1.000
    H8      H    0.15570   0.83870   0.90440   1.000
    C17     C    0.45270   0.93880   0.86240   1.000
    C18     C    0.20970   0.15860   0.14140   1.000
    H9      H    0.24270   0.21440   0.16320   1.000
    C19     C    0.37660   0.89390   0.82800   1.000
    H10     H    0.31270   0.85090   0.84100   1.000
    C20     C    0.14070   0.73830   0.01490   1.000
    H11     H    0.15160   0.69110   0.03190   1.000
    Cd1     Cd   0.34980   0.77856   0.19415   1.000
    Cd2     Cd   0.49186   0.99375   0.66359   1.000
    N1      N    0.48050   0.96850   0.75480   1.000
    O1      O    0.16780   0.68350   0.88080   1.000
    C21     C    0.19440   0.46250   0.17610   1.000
    O2      O    0.40990   0.22470   0.16320   1.000
    C22     C    0.11620   0.31220   0.12020   1.000
    H12     H    0.09670   0.28430   0.08690   1.000
    O3      O    0.41800   0.12610   0.10510   1.000
    C23     C    0.25060   0.57590   0.18260   1.000
    C24     C    0.16470   0.41840   0.12880   1.000
    H13     H    0.17620   0.45950   0.09980   1.000
    O4      O    0.05420   0.15510   0.15390   1.000
    O5      O    0.25560   0.61160   0.22720   1.000
    O6      O    0.20120   0.62930   0.95120   1.000
    O7      O    0.05120   0.90960   0.04660   1.000
    O8      O    0.28910   0.63130   0.14440   1.000
    O9      O    0.34220   0.98800   0.66230   1.000
    H14     H    0.33390   0.04790   0.67470   1.000
    H15     H    0.27430   0.92870   0.66990   1.000
    O10     O    0.39710   0.83380   0.65330   1.000
    H16     H    0.39190   0.81140   0.62220   1.000
    H17     H    0.41030   0.79940   0.67490   1.000
    C25     C    0.11070   0.88120   0.96840   1.000
    H18     H    0.10240   0.93070   0.95220   1.000
    C26     C    0.38850   0.90820   0.77420   1.000
    H19     H    0.33350   0.87640   0.75190   1.000
    O11     O    0.62590   0.96180   0.66600   1.000
    C27     C    0.43920   0.96180   0.92060   1.000
    H20     H    0.48100   0.03240   0.92900   1.000
    H21     H    0.36980   0.94050   0.92870   1.000
    C28     C    0.47270   0.90080   0.94740   1.000
    H22     H    0.54120   0.92180   0.93740   1.000
    H23     H    0.43060   0.83100   0.93760   1.000
    C29     C    0.46650   0.91310   0.00920   1.000
    C30     C    0.44130   0.96640   0.04410   1.000
    H24     H    0.44640   0.02680   0.03370   1.000
    C31     C    0.40840   0.92960   0.09440   1.000
    H25     H    0.39150   0.96530   0.11770   1.000
    N2      N    0.40070   0.83950   0.10990   1.000
    C32     C    0.42590   0.78610   0.07500   1.000
    H26     H    0.42080   0.72580   0.08540   1.000
    C33     C    0.45880   0.82290   0.02470   1.000
    H27     H    0.47570   0.78720   0.00140   1.000
    C34     C    0.42150   0.90000   0.91910   1.000
    H28     H    0.36380   0.90560   0.92930   1.000
    H29     H    0.40280   0.82980   0.92080   1.000
    C35     C    0.50260   0.95690   0.95410   1.000
    H30     H    0.51970   0.02660   0.95460   1.000
    H31     H    0.56150   0.95320   0.94420   1.000
    C36     C    0.16470   0.32710   0.12060   1.000
    H32     H    0.17650   0.30300   0.08950   1.000
    C37     C    0.20910   0.43130   0.12950   1.000
    H33     H    0.24760   0.47730   0.10370   1.000
    C38     C    0.46140   0.90600   0.00940   1.000
    C39     C    0.39200   0.92480   0.03410   1.000
    H34     H    0.35910   0.95130   0.01500   1.000
    C40     C    0.37170   0.90390   0.08720   1.000
    H35     H    0.32520   0.91650   0.10380   1.000
    N3      N    0.42080   0.86420   0.11570   1.000
    C41     C    0.49020   0.84540   0.09100   1.000
    H36     H    0.52310   0.81890   0.11000   1.000
    C42     C    0.51050   0.86630   0.03780   1.000
    H37     H    0.55700   0.85370   0.02130   1.000
    C43     C    0.98670   0.54170   0.45407   1.000
    H38     H    0.94630   0.56510   0.44027   1.000
    C44     C    0.88050   0.99180   0.79707   1.000
    C45     C    0.88590   0.14640   0.78657   1.000
    C46     C    0.96730   0.17870   0.75157   1.000
    H39     H    0.99390   0.24020   0.73457   1.000
    C47     C    0.00520   0.11790   0.74337   1.000
    C48     C    0.96450   0.02270   0.76637   1.000
    H40     H    0.99280   0.98230   0.76107   1.000
    C49     C    0.74010   0.84190   0.82657   1.000
    C50     C    0.70250   0.81420   0.87547   1.000
    H41     H    0.74600   0.83050   0.90377   1.000
    C51     C    0.84160   0.21310   0.79627   1.000
    C52     C    0.60120   0.76230   0.88397   1.000
    H42     H    0.57620   0.74780   0.91807   1.000
    C53     C    0.31750   0.49180   0.59747   1.000
    C54     C    0.24930   0.40270   0.62827   1.000
    C55     C    0.20200   0.31290   0.71097   1.000
    H43     H    0.20920   0.31390   0.74727   1.000
    C56     C    0.99580   0.54050   0.50837   1.000
    H44     H    0.95820   0.55750   0.53027   1.000
    C57     C    0.13830   0.23050   0.68797   1.000
    C58     C    0.17510   0.31700   0.60667   1.000
    H45     H    0.16130   0.31700   0.57107   1.000
    C59     C    0.06120   0.51390   0.52907   1.000
    C60     C    0.84140   0.05110   0.80807   1.000
    H46     H    0.78560   0.02830   0.82987   1.000
    C61     C    0.10610   0.48270   0.49467   1.000
    H47     H    0.14910   0.46180   0.50767   1.000
    C62     C    0.26170   0.40240   0.68157   1.000
    H48     H    0.30890   0.46050   0.69857   1.000
    Cd3     Cd   0.22144   0.57124   0.86082   1.000
    Cd4     Cd   0.00625   0.49811   0.33026   1.000
    N4      N    0.03150   0.51200   0.42147   1.000
    O12     O    0.31650   0.48430   0.54747   1.000
    C63     C    0.53750   0.73190   0.84277   1.000
    O13     O    0.77530   0.18520   0.82987   1.000
    C64     C    0.68780   0.80400   0.78687   1.000
    H49     H    0.71570   0.81240   0.75357   1.000
    O14     O    0.87390   0.29190   0.77177   1.000
    C65     C    0.42410   0.67470   0.84927   1.000
    C66     C    0.58160   0.74630   0.79547   1.000
    H50     H    0.54050   0.71670   0.76647   1.000
    O15     O    0.84490   0.89910   0.82057   1.000
    O16     O    0.38840   0.64400   0.89387   1.000
    O17     O    0.37070   0.57190   0.61787   1.000
    O18     O    0.09040   0.14160   0.71327   1.000
    O19     O    0.36870   0.65780   0.81107   1.000
    O20     O    0.01200   0.35420   0.32897   1.000
    H51     H    0.95210   0.28600   0.34137   1.000
    H52     H    0.07130   0.34560   0.33657   1.000
    O21     O    0.16620   0.56330   0.31997   1.000
    H53     H    0.18860   0.58050   0.28887   1.000
    H54     H    0.20060   0.61090   0.34157   1.000
    C67     C    0.11880   0.22950   0.63507   1.000
    H55     H    0.06930   0.17170   0.61887   1.000
    C68     C    0.09180   0.48030   0.44087   1.000
    H56     H    0.12360   0.45710   0.41857   1.000
    O22     O    0.03820   0.66410   0.33267   1.000
    C69     C    0.03820   0.47740   0.58727   1.000
    H57     H    0.96760   0.44860   0.59567   1.000
    H58     H    0.05950   0.42930   0.59537   1.000
    C70     C    0.09920   0.57190   0.61407   1.000
    H59     H    0.07820   0.61940   0.60407   1.000
    H60     H    0.16900   0.59960   0.60427   1.000
    C71     C    0.08690   0.55340   0.67587   1.000
    C72     C    0.03360   0.47490   0.71077   1.000
    H61     H    0.97320   0.41960   0.70037   1.000
    C73     C    0.07040   0.47880   0.76107   1.000
    H62     H    0.03470   0.42620   0.78437   1.000
    N5      N    0.16050   0.56120   0.77657   1.000
    C74     C    0.21390   0.63980   0.74167   1.000
    H63     H    0.27420   0.69500   0.75207   1.000
    C75     C    0.17710   0.63590   0.69137   1.000
    H64     H    0.21280   0.68850   0.66807   1.000
    C76     C    0.10000   0.52150   0.58577   1.000
    H65     H    0.09440   0.45820   0.59597   1.000
    H66     H    0.17020   0.57300   0.58747   1.000
    C77     C    0.04310   0.54570   0.62077   1.000
    H67     H    0.97340   0.49310   0.62127   1.000
    H68     H    0.04680   0.60830   0.61087   1.000
    C78     C    0.67290   0.83760   0.78727   1.000
    H69     H    0.69700   0.87350   0.75617   1.000
    C79     C    0.56870   0.77780   0.79617   1.000
    H70     H    0.52270   0.77030   0.77037   1.000
    C80     C    0.09400   0.55540   0.67607   1.000
    C81     C    0.07520   0.46720   0.70077   1.000
    H71     H    0.04870   0.40780   0.68167   1.000
    C82     C    0.09610   0.46780   0.75387   1.000
    H72     H    0.08350   0.40870   0.77047   1.000
    N6      N    0.13580   0.55660   0.78237   1.000
    C83     C    0.15460   0.64480   0.75767   1.000
    H73     H    0.18110   0.70420   0.77667   1.000
    C84     C    0.13370   0.64420   0.70447   1.000
    H74     H    0.14630   0.70330   0.68797   1.000
    C85     C    0.45830   0.44500   0.12073   1.000
    H75     H    0.43490   0.38120   0.10693   1.000
    C86     C    0.00820   0.88870   0.46373   1.000
    C87     C    0.85360   0.73950   0.45323   1.000
    C88     C    0.82130   0.78860   0.41823   1.000
    H76     H    0.75980   0.75370   0.40123   1.000
    C89     C    0.88210   0.88730   0.41003   1.000
    C90     C    0.97730   0.94180   0.43303   1.000
    H77     H    0.01770   0.01050   0.42773   1.000
    C91     C    0.15810   0.89820   0.49323   1.000
    C92     C    0.18580   0.88830   0.54213   1.000
    H78     H    0.16950   0.91550   0.57043   1.000
    C93     C    0.78690   0.62850   0.46293   1.000
    C94     C    0.23770   0.83890   0.55063   1.000
    H79     H    0.25220   0.82840   0.58473   1.000
    C95     C    0.50820   0.82570   0.26413   1.000
    C96     C    0.59730   0.84660   0.29493   1.000
    C97     C    0.68710   0.88910   0.37763   1.000
    H80     H    0.68610   0.89530   0.41393   1.000
    C98     C    0.45950   0.45530   0.17503   1.000
    H81     H    0.44250   0.40070   0.19693   1.000
    C99     C    0.76950   0.90780   0.35463   1.000
    C100    C    0.68300   0.85810   0.27333   1.000
    H82     H    0.68300   0.84430   0.23773   1.000
    C101    C    0.48610   0.54730   0.19573   1.000
    C102    C    0.94890   0.79030   0.47473   1.000
    H83     H    0.97170   0.75730   0.49653   1.000
    C103    C    0.51730   0.62340   0.16133   1.000
    H84     H    0.53820   0.68730   0.17433   1.000
    C104    C    0.59760   0.85930   0.34823   1.000
    H85     H    0.53950   0.84840   0.36523   1.000
    Cd5     Cd   0.42876   0.65020   0.52748   1.000
    Cd6     Cd   0.50189   0.50814   0.99692   1.000
    N7      N    0.48800   0.51950   0.08813   1.000
    O23     O    0.51570   0.83220   0.21413   1.000
    C105    C    0.26810   0.80560   0.50943   1.000
    O24     O    0.81480   0.59010   0.49653   1.000
    C106    C    0.19600   0.88380   0.45353   1.000
    H86     H    0.18760   0.90330   0.42023   1.000
    O25     O    0.70810   0.58200   0.43843   1.000
    C107    C    0.32530   0.74940   0.51593   1.000
    C108    C    0.25370   0.83530   0.46213   1.000
    H87     H    0.28330   0.82380   0.43313   1.000
    O26     O    0.10090   0.94580   0.48723   1.000
    O27     O    0.35600   0.74440   0.56053   1.000
    O28     O    0.42810   0.79880   0.28453   1.000
    O29     O    0.85840   0.94880   0.37993   1.000
    O30     O    0.34220   0.71090   0.47773   1.000
    O31     O    0.64580   0.65780   0.99563   1.000
    H88     H    0.71400   0.66610   0.00803   1.000
    H89     H    0.65440   0.72570   0.00323   1.000
    O32     O    0.43670   0.60290   0.98663   1.000
    H90     H    0.41950   0.60810   0.95553   1.000
    H91     H    0.38910   0.58970   0.00823   1.000
    C109    C    0.77050   0.88930   0.30173   1.000
    H92     H    0.82830   0.89760   0.28553   1.000
    C110    C    0.51970   0.61150   0.10753   1.000
    H93     H    0.54290   0.66650   0.08523   1.000
    O33     O    0.33590   0.37410   0.99933   1.000
    C111    C    0.52260   0.56080   0.25393   1.000
    H94     H    0.55140   0.51900   0.26233   1.000
    H95     H    0.57070   0.63020   0.26203   1.000
    C112    C    0.42810   0.52730   0.28073   1.000
    H96     H    0.38060   0.45880   0.27073   1.000
    H97     H    0.40040   0.56940   0.27093   1.000
    C113    C    0.44660   0.53350   0.34253   1.000
    C114    C    0.52510   0.55870   0.37743   1.000
    H98     H    0.58040   0.55360   0.36703   1.000
    C115    C    0.52120   0.59160   0.42773   1.000
    H99     H    0.57380   0.60850   0.45103   1.000
    N8      N    0.43880   0.59930   0.44323   1.000
    C116    C    0.36020   0.57410   0.40833   1.000
    H100    H    0.30500   0.57920   0.41873   1.000
    C117    C    0.36410   0.54120   0.35803   1.000
    H101    H    0.31150   0.52430   0.33473   1.000
    C118    C    0.47850   0.57850   0.25243   1.000
    H102    H    0.54180   0.63620   0.26263   1.000
    H103    H    0.42700   0.59720   0.25413   1.000
    C119    C    0.45430   0.49740   0.28743   1.000
    H104    H    0.50690   0.48030   0.28793   1.000
    H105    H    0.39170   0.43850   0.27753   1.000
    C120    C    0.16240   0.83530   0.45393   1.000
    H106    H    0.12650   0.82350   0.42283   1.000
    C121    C    0.22220   0.79090   0.46283   1.000
    H107    H    0.22970   0.75240   0.43703   1.000
    C122    C    0.44460   0.53860   0.34273   1.000
    C123    C    0.53280   0.60800   0.36743   1.000
    H108    H    0.59220   0.64090   0.34833   1.000
    C124    C    0.53220   0.62830   0.42053   1.000
    H109    H    0.59130   0.67480   0.43713   1.000
    N9      N    0.44340   0.57920   0.44903   1.000
    C125    C    0.35520   0.50980   0.42433   1.000
    H110    H    0.29580   0.47690   0.44333   1.000
    C126    C    0.35580   0.48950   0.37113   1.000
    H111    H    0.29670   0.44300   0.35463   1.000
    C127    C    0.01330   0.55500   0.21260   1.000
    H112    H    0.05370   0.61880   0.22640   1.000
    C128    C    0.11950   0.11130   0.86960   1.000
    C129    C    0.11410   0.26050   0.88010   1.000
    C130    C    0.03270   0.21140   0.91510   1.000
    H113    H    0.00610   0.24630   0.93210   1.000
    C131    C    0.99480   0.11270   0.92330   1.000
    C132    C    0.03550   0.05820   0.90030   1.000
    H114    H    0.00720   0.98950   0.90560   1.000
    C133    C    0.25990   0.10180   0.84010   1.000
    C134    C    0.29750   0.11170   0.79120   1.000
    H115    H    0.25400   0.08450   0.76290   1.000
    C135    C    0.15840   0.37150   0.87040   1.000
    C136    C    0.39880   0.16110   0.78270   1.000
    H116    H    0.42380   0.17160   0.74860   1.000
    C137    C    0.68250   0.17430   0.06920   1.000
    C138    C    0.75070   0.15340   0.03840   1.000
    C139    C    0.79800   0.11090   0.95570   1.000
    H117    H    0.79080   0.10470   0.91940   1.000
    C140    C    0.00420   0.54470   0.15830   1.000
    H118    H    0.04180   0.59930   0.13640   1.000
    C141    C    0.86170   0.09220   0.97870   1.000
    C142    C    0.82490   0.14190   0.06000   1.000
    H119    H    0.83870   0.15570   0.09560   1.000
    C143    C    0.93880   0.45270   0.13760   1.000
    C144    C    0.15860   0.20970   0.85860   1.000
    H120    H    0.21440   0.24270   0.83680   1.000
    C145    C    0.89390   0.37660   0.17200   1.000
    H121    H    0.85090   0.31270   0.15900   1.000
    C146    C    0.73830   0.14070   0.98510   1.000
    H122    H    0.69110   0.15160   0.96810   1.000
    Cd7     Cd   0.77856   0.34980   0.80585   1.000
    Cd8     Cd   0.99375   0.49186   0.33641   1.000
    N10     N    0.96850   0.48050   0.24520   1.000
    O34     O    0.68350   0.16780   0.11920   1.000
    C147    C    0.46250   0.19440   0.82390   1.000
    O35     O    0.22470   0.40990   0.83680   1.000
    C148    C    0.31220   0.11620   0.87980   1.000
    H123    H    0.28430   0.09670   0.91310   1.000
    O36     O    0.12610   0.41800   0.89490   1.000
    C149    C    0.57590   0.25060   0.81740   1.000
    C150    C    0.41840   0.16470   0.87120   1.000
    H124    H    0.45950   0.17620   0.90020   1.000
    O37     O    0.15510   0.05420   0.84610   1.000
    O38     O    0.61160   0.25560   0.77280   1.000
    O39     O    0.62930   0.20120   0.04880   1.000
    O40     O    0.90960   0.05120   0.95340   1.000
    O41     O    0.63130   0.28910   0.85560   1.000
    O42     O    0.98800   0.34220   0.33770   1.000
    H125    H    0.04790   0.33390   0.32530   1.000
    H126    H    0.92870   0.27430   0.33010   1.000
    O43     O    0.83380   0.39710   0.34670   1.000
    H127    H    0.81140   0.39190   0.37780   1.000
    H128    H    0.79940   0.41030   0.32510   1.000
    C151    C    0.88120   0.11070   0.03160   1.000
    H129    H    0.93070   0.10240   0.04780   1.000
    C152    C    0.90820   0.38850   0.22580   1.000
    H130    H    0.87640   0.33350   0.24810   1.000
    O44     O    0.96180   0.62590   0.33400   1.000
    C153    C    0.96180   0.43920   0.07940   1.000
    H131    H    0.03240   0.48100   0.07100   1.000
    H132    H    0.94050   0.36980   0.07130   1.000
    C154    C    0.90080   0.47270   0.05260   1.000
    H133    H    0.92180   0.54120   0.06260   1.000
    H134    H    0.83100   0.43060   0.06240   1.000
    C155    C    0.91310   0.46650   0.99080   1.000
    C156    C    0.96640   0.44130   0.95590   1.000
    H135    H    0.02680   0.44640   0.96630   1.000
    C157    C    0.92960   0.40840   0.90560   1.000
    H136    H    0.96530   0.39150   0.88230   1.000
    N11     N    0.83950   0.40070   0.89010   1.000
    C158    C    0.78610   0.42590   0.92500   1.000
    H137    H    0.72580   0.42080   0.91460   1.000
    C159    C    0.82290   0.45880   0.97530   1.000
    H138    H    0.78720   0.47570   0.99860   1.000
    C160    C    0.90000   0.42150   0.08090   1.000
    H139    H    0.90560   0.36380   0.07070   1.000
    H140    H    0.82980   0.40280   0.07920   1.000
    C161    C    0.95690   0.50260   0.04590   1.000
    H141    H    0.02660   0.51970   0.04540   1.000
    H142    H    0.95320   0.56150   0.05580   1.000
    C162    C    0.32710   0.16470   0.87940   1.000
    H143    H    0.30300   0.17650   0.91050   1.000
    C163    C    0.43130   0.20910   0.87050   1.000
    H144    H    0.47730   0.24760   0.89630   1.000
    C164    C    0.90600   0.46140   0.99060   1.000
    C165    C    0.92480   0.39200   0.96590   1.000
    H145    H    0.95130   0.35910   0.98500   1.000
    C166    C    0.90390   0.37170   0.91280   1.000
    H146    H    0.91650   0.32520   0.89620   1.000
    N12     N    0.86420   0.42080   0.88430   1.000
    C167    C    0.84540   0.49020   0.90900   1.000
    H147    H    0.81890   0.52310   0.89000   1.000
    C168    C    0.86630   0.51050   0.96220   1.000
    H148    H    0.85370   0.55700   0.97870   1.000
    C169    C    0.54170   0.98670   0.54593   1.000
    H149    H    0.56510   0.94630   0.55973   1.000
    C170    C    0.99180   0.88050   0.20293   1.000
    C171    C    0.14640   0.88590   0.21343   1.000
    C172    C    0.17870   0.96730   0.24843   1.000
    H150    H    0.24020   0.99390   0.26543   1.000
    C173    C    0.11790   0.00520   0.25663   1.000
    C174    C    0.02270   0.96450   0.23363   1.000
    H151    H    0.98230   0.99280   0.23893   1.000
    C175    C    0.84190   0.74010   0.17343   1.000
    C176    C    0.81420   0.70250   0.12453   1.000
    H152    H    0.83050   0.74600   0.09623   1.000
    C177    C    0.21310   0.84160   0.20373   1.000
    C178    C    0.76230   0.60120   0.11603   1.000
    H153    H    0.74780   0.57620   0.08193   1.000
    C179    C    0.49180   0.31750   0.40253   1.000
    C180    C    0.40270   0.24930   0.37173   1.000
    C181    C    0.31290   0.20200   0.28903   1.000
    H154    H    0.31390   0.20920   0.25273   1.000
    C182    C    0.54050   0.99580   0.49163   1.000
    H155    H    0.55750   0.95820   0.46973   1.000
    C183    C    0.23050   0.13830   0.31203   1.000
    C184    C    0.31700   0.17510   0.39333   1.000
    H156    H    0.31700   0.16130   0.42893   1.000
    C185    C    0.51390   0.06120   0.47093   1.000
    C186    C    0.05110   0.84140   0.19193   1.000
    H157    H    0.02830   0.78560   0.17013   1.000
    C187    C    0.48270   0.10610   0.50533   1.000
    H158    H    0.46180   0.14910   0.49233   1.000
    C188    C    0.40240   0.26170   0.31843   1.000
    H159    H    0.46050   0.30890   0.30143   1.000
    Cd9     Cd   0.57124   0.22144   0.13918   1.000
    Cd10    Cd   0.49811   0.00625   0.66974   1.000
    N13     N    0.51200   0.03150   0.57853   1.000
    O45     O    0.48430   0.31650   0.45253   1.000
    C189    C    0.73190   0.53750   0.15723   1.000
    O46     O    0.18520   0.77530   0.17013   1.000
    C190    C    0.80400   0.68780   0.21313   1.000
    H160    H    0.81240   0.71570   0.24643   1.000
    O47     O    0.29190   0.87390   0.22823   1.000
    C191    C    0.67470   0.42410   0.15073   1.000
    C192    C    0.74630   0.58160   0.20453   1.000
    H161    H    0.71670   0.54050   0.23353   1.000
    O48     O    0.89910   0.84490   0.17943   1.000
    O49     O    0.64400   0.38840   0.10613   1.000
    O50     O    0.57190   0.37070   0.38213   1.000
    O51     O    0.14160   0.09040   0.28673   1.000
    O52     O    0.65780   0.36870   0.18893   1.000
    O53     O    0.35420   0.01200   0.67103   1.000
    H162    H    0.28600   0.95210   0.65863   1.000
    H163    H    0.34560   0.07130   0.66343   1.000
    O54     O    0.56330   0.16620   0.68003   1.000
    H164    H    0.58050   0.18860   0.71113   1.000
    H165    H    0.61090   0.20060   0.65843   1.000
    C193    C    0.22950   0.11880   0.36493   1.000
    H166    H    0.17170   0.06930   0.38113   1.000
    C194    C    0.48030   0.09180   0.55913   1.000
    H167    H    0.45710   0.12360   0.58143   1.000
    O55     O    0.66410   0.03820   0.66733   1.000
    C195    C    0.47740   0.03820   0.41273   1.000
    H168    H    0.44860   0.96760   0.40433   1.000
    H169    H    0.42930   0.05950   0.40463   1.000
    C196    C    0.57190   0.09920   0.38593   1.000
    H170    H    0.61940   0.07820   0.39593   1.000
    H171    H    0.59960   0.16900   0.39573   1.000
    C197    C    0.55340   0.08690   0.32413   1.000
    C198    C    0.47490   0.03360   0.28923   1.000
    H172    H    0.41960   0.97320   0.29963   1.000
    C199    C    0.47880   0.07040   0.23893   1.000
    H173    H    0.42620   0.03470   0.21563   1.000
    N14     N    0.56120   0.16050   0.22343   1.000
    C200    C    0.63980   0.21390   0.25833   1.000
    H174    H    0.69500   0.27420   0.24793   1.000
    C201    C    0.63590   0.17710   0.30863   1.000
    H175    H    0.68850   0.21280   0.33193   1.000
    C202    C    0.52150   0.10000   0.41423   1.000
    H176    H    0.45820   0.09440   0.40403   1.000
    H177    H    0.57300   0.17020   0.41253   1.000
    C203    C    0.54570   0.04310   0.37923   1.000
    H178    H    0.49310   0.97340   0.37873   1.000
    H179    H    0.60830   0.04680   0.38913   1.000
    C204    C    0.83760   0.67290   0.21273   1.000
    H180    H    0.87350   0.69700   0.24383   1.000
    C205    C    0.77780   0.56870   0.20383   1.000
    H181    H    0.77030   0.52270   0.22963   1.000
    C206    C    0.55540   0.09400   0.32393   1.000
    C207    C    0.46720   0.07520   0.29923   1.000
    H182    H    0.40780   0.04870   0.31833   1.000
    C208    C    0.46780   0.09610   0.24613   1.000
    H183    H    0.40870   0.08350   0.22953   1.000
    N15     N    0.55660   0.13580   0.21763   1.000
    C209    C    0.64480   0.15460   0.24233   1.000
    H184    H    0.70420   0.18110   0.22333   1.000
    C210    C    0.64420   0.13370   0.29553   1.000
    H185    H    0.70330   0.14630   0.31203   1.000
    C211    C    0.44500   0.45830   0.87927   1.000
    H186    H    0.38120   0.43490   0.89307   1.000
    C212    C    0.88870   0.00820   0.53627   1.000
    C213    C    0.73950   0.85360   0.54677   1.000
    C214    C    0.78860   0.82130   0.58177   1.000
    H187    H    0.75370   0.75980   0.59877   1.000
    C215    C    0.88730   0.88210   0.58997   1.000
    C216    C    0.94180   0.97730   0.56697   1.000
    H188    H    0.01050   0.01770   0.57227   1.000
    C217    C    0.89820   0.15810   0.50677   1.000
    C218    C    0.88830   0.18580   0.45787   1.000
    H189    H    0.91550   0.16950   0.42957   1.000
    C219    C    0.62850   0.78690   0.53707   1.000
    C220    C    0.83890   0.23770   0.44937   1.000
    H190    H    0.82840   0.25220   0.41527   1.000
    C221    C    0.82570   0.50820   0.73587   1.000
    C222    C    0.84660   0.59730   0.70507   1.000
    C223    C    0.88910   0.68710   0.62237   1.000
    H191    H    0.89530   0.68610   0.58607   1.000
    C224    C    0.45530   0.45950   0.82497   1.000
    H192    H    0.40070   0.44250   0.80307   1.000
    C225    C    0.90780   0.76950   0.64537   1.000
    C226    C    0.85810   0.68300   0.72667   1.000
    H193    H    0.84430   0.68300   0.76227   1.000
    C227    C    0.54730   0.48610   0.80427   1.000
    C228    C    0.79030   0.94890   0.52527   1.000
    H194    H    0.75730   0.97170   0.50347   1.000
    C229    C    0.62340   0.51730   0.83867   1.000
    H195    H    0.68730   0.53820   0.82567   1.000
    C230    C    0.85930   0.59760   0.65177   1.000
    H196    H    0.84840   0.53950   0.63477   1.000
    Cd11    Cd   0.65020   0.42876   0.47252   1.000
    Cd12    Cd   0.50814   0.50189   0.00308   1.000
    N16     N    0.51950   0.48800   0.91187   1.000
    O56     O    0.83220   0.51570   0.78587   1.000
    C231    C    0.80560   0.26810   0.49057   1.000
    O57     O    0.59010   0.81480   0.50347   1.000
    C232    C    0.88380   0.19600   0.54647   1.000
    H197    H    0.90330   0.18760   0.57977   1.000
    O58     O    0.58200   0.70810   0.56157   1.000
    C233    C    0.74940   0.32530   0.48407   1.000
    C234    C    0.83530   0.25370   0.53787   1.000
    H198    H    0.82380   0.28330   0.56687   1.000
    O59     O    0.94580   0.10090   0.51277   1.000
    O60     O    0.74440   0.35600   0.43947   1.000
    O61     O    0.79880   0.42810   0.71547   1.000
    O62     O    0.94880   0.85840   0.62007   1.000
    O63     O    0.71090   0.34220   0.52227   1.000
    O64     O    0.65780   0.64580   0.00437   1.000
    H199    H    0.66610   0.71400   0.99197   1.000
    H200    H    0.72570   0.65440   0.99677   1.000
    O65     O    0.60290   0.43670   0.01337   1.000
    H201    H    0.60810   0.41950   0.04447   1.000
    H202    H    0.58970   0.38910   0.99177   1.000
    C235    C    0.88930   0.77050   0.69827   1.000
    H203    H    0.89760   0.82830   0.71447   1.000
    C236    C    0.61150   0.51970   0.89247   1.000
    H204    H    0.66650   0.54290   0.91477   1.000
    O66     O    0.37410   0.33590   0.00067   1.000
    C237    C    0.56080   0.52260   0.74607   1.000
    H205    H    0.51900   0.55140   0.73767   1.000
    H206    H    0.63020   0.57070   0.73797   1.000
    C238    C    0.52730   0.42810   0.71927   1.000
    H207    H    0.45880   0.38060   0.72927   1.000
    H208    H    0.56940   0.40040   0.72907   1.000
    C239    C    0.53350   0.44660   0.65747   1.000
    C240    C    0.55870   0.52510   0.62257   1.000
    H209    H    0.55360   0.58040   0.63297   1.000
    C241    C    0.59160   0.52120   0.57227   1.000
    H210    H    0.60850   0.57380   0.54897   1.000
    N17     N    0.59930   0.43880   0.55677   1.000
    C242    C    0.57410   0.36020   0.59167   1.000
    H211    H    0.57920   0.30500   0.58127   1.000
    C243    C    0.54120   0.36410   0.64197   1.000
    H212    H    0.52430   0.31150   0.66527   1.000
    C244    C    0.57850   0.47850   0.74757   1.000
    H213    H    0.63620   0.54180   0.73737   1.000
    H214    H    0.59720   0.42700   0.74587   1.000
    C245    C    0.49740   0.45430   0.71257   1.000
    H215    H    0.48030   0.50690   0.71207   1.000
    H216    H    0.43850   0.39170   0.72247   1.000
    C246    C    0.83530   0.16240   0.54607   1.000
    H217    H    0.82350   0.12650   0.57717   1.000
    C247    C    0.79090   0.22220   0.53717   1.000
    H218    H    0.75240   0.22970   0.56297   1.000
    C248    C    0.53860   0.44460   0.65727   1.000
    C249    C    0.60800   0.53280   0.63257   1.000
    H219    H    0.64090   0.59220   0.65167   1.000
    C250    C    0.62830   0.53220   0.57947   1.000
    H220    H    0.67480   0.59130   0.56287   1.000
    N18     N    0.57920   0.44340   0.55097   1.000
    C251    C    0.50980   0.35520   0.57567   1.000
    H221    H    0.47690   0.29580   0.55667   1.000
    C252    C    0.48950   0.35580   0.62887   1.000
    H222    H    0.44300   0.29670   0.64537   1.000
