data_functionalizedCrystal
_audit_creation_method	'EQeq! by Chris Wilmer'
_symmetry_space_group_name_H-M	'P1'
_symmetry_Int_Tables_number	1
_symmetry_cell_setting	triclinic
loop_
_symmetry_equiv_pos_as_xyz
  x,y,z
_cell_length_a	46.73
_cell_length_b	46.73
_cell_length_c	46.73
_cell_angle_alpha	90
_cell_angle_beta	90
_cell_angle_gamma	90
loop_
_atom_site_label
_atom_site_type_symbol
_atom_site_fract_x
_atom_site_fract_y
_atom_site_fract_z
_atom_site_charge
Mof_C 	C 	0.6975	0.2156	0.0204	-0.097
Mof_H 	H 	0.6837	0.215	0.0348	0.064
Mof_C 	C 	0.7192	0.23722	0.02101	-0.01
Mof_H 	H 	0.7197	0.2502	0.036	0.028
Mof_C 	C 	0.6975	0.7156	0.5204	-0.098
Mof_H 	H 	0.6837	0.715	0.5348	0.064
Mof_C 	C 	0.7192	0.73722	0.52101	-0.01
Mof_H 	H 	0.7197	0.7502	0.536	0.028
Mof_C 	C 	0.1975	0.2156	0.5204	-0.098
Mof_H 	H 	0.1837	0.215	0.5348	0.064
Mof_C 	C 	0.2192	0.23722	0.52101	-0.01
Mof_H 	H 	0.2197	0.2502	0.536	0.028
Mof_C 	C 	0.1975	0.7156	0.0204	-0.097
Mof_H 	H 	0.1837	0.715	0.0348	0.064
Mof_C 	C 	0.2192	0.73722	0.02101	-0.01
Mof_H 	H 	0.2197	0.7502	0.036	0.028
Mof_C 	C 	0.3025	0.7844	0.0204	-0.097
Mof_H 	H 	0.3163	0.785	0.0348	0.064
Mof_C 	C 	0.2808	0.76278	0.02101	-0.01
Mof_H 	H 	0.2803	0.7498	0.036	0.028
Mof_C 	C 	0.3025	0.2844	0.5204	-0.098
Mof_H 	H 	0.3163	0.285	0.5348	0.064
Mof_C 	C 	0.2808	0.26278	0.52101	-0.01
Mof_H 	H 	0.2803	0.2498	0.536	0.028
Mof_C 	C 	0.8025	0.7844	0.5204	-0.098
Mof_H 	H 	0.8163	0.785	0.5348	0.064
Mof_C 	C 	0.7808	0.76278	0.52101	-0.009
Mof_H 	H 	0.7803	0.7498	0.536	0.028
Mof_C 	C 	0.8025	0.2844	0.0204	-0.097
Mof_H 	H 	0.8163	0.285	0.0348	0.064
Mof_C 	C 	0.7808	0.26278	0.02101	-0.01
Mof_H 	H 	0.7803	0.2498	0.036	0.028
Mof_C 	C 	0.3025	0.2156	0.9796	-0.096
Mof_H 	H 	0.3163	0.215	0.9652	0.064
Mof_C 	C 	0.2808	0.23722	0.97899	-0.009
Mof_H 	H 	0.2803	0.2502	0.964	0.028
Mof_C 	C 	0.3025	0.7156	0.4796	-0.098
Mof_H 	H 	0.3163	0.715	0.4652	0.064
Mof_C 	C 	0.2808	0.73722	0.47899	-0.01
Mof_H 	H 	0.2803	0.7502	0.464	0.028
Mof_C 	C 	0.8025	0.2156	0.4796	-0.098
Mof_H 	H 	0.8163	0.215	0.4652	0.064
Mof_C 	C 	0.7808	0.23722	0.47899	-0.009
Mof_H 	H 	0.7803	0.2502	0.464	0.028
Mof_C 	C 	0.8025	0.7156	0.9796	-0.096
Mof_H 	H 	0.8163	0.715	0.9652	0.064
Mof_C 	C 	0.7808	0.73722	0.97899	-0.009
Mof_H 	H 	0.7803	0.7502	0.964	0.028
Mof_C 	C 	0.6975	0.7844	0.9796	-0.096
Mof_H 	H 	0.6837	0.785	0.9652	0.064
Mof_C 	C 	0.7192	0.76278	0.97899	-0.009
Mof_H 	H 	0.7197	0.7498	0.964	0.028
Mof_C 	C 	0.6975	0.2844	0.4796	-0.098
Mof_H 	H 	0.6837	0.285	0.4652	0.064
Mof_C 	C 	0.7192	0.26278	0.47899	-0.01
Mof_H 	H 	0.7197	0.2498	0.464	0.028
Mof_C 	C 	0.1975	0.7844	0.4796	-0.098
Mof_H 	H 	0.1837	0.785	0.4652	0.064
Mof_C 	C 	0.2192	0.76278	0.47899	-0.01
Mof_H 	H 	0.2197	0.7498	0.464	0.028
Mof_C 	C 	0.1975	0.2844	0.9796	-0.096
Mof_H 	H 	0.1837	0.285	0.9652	0.064
Mof_C 	C 	0.2192	0.26278	0.97899	-0.009
Mof_H 	H 	0.2197	0.2498	0.964	0.028
Mof_C 	C 	0.0204	0.6975	0.2156	-0.097
Mof_H 	H 	0.0348	0.6837	0.215	0.064
Mof_C 	C 	0.02101	0.7192	0.23722	-0.01
Mof_H 	H 	0.036	0.7197	0.2502	0.028
Mof_C 	C 	0.0204	0.1975	0.7156	-0.097
Mof_H 	H 	0.0348	0.1837	0.715	0.064
Mof_C 	C 	0.02101	0.2192	0.73722	-0.01
Mof_H 	H 	0.036	0.2197	0.7502	0.028
Mof_C 	C 	0.5204	0.6975	0.7156	-0.098
Mof_H 	H 	0.5348	0.6837	0.715	0.064
Mof_C 	C 	0.52101	0.7192	0.73722	-0.01
Mof_H 	H 	0.536	0.7197	0.7502	0.028
Mof_C 	C 	0.5204	0.1975	0.2156	-0.098
Mof_H 	H 	0.5348	0.1837	0.215	0.064
Mof_C 	C 	0.52101	0.2192	0.23722	-0.01
Mof_H 	H 	0.536	0.2197	0.2502	0.028
Mof_C 	C 	0.0204	0.3025	0.7844	-0.097
Mof_H 	H 	0.0348	0.3163	0.785	0.064
Mof_C 	C 	0.02101	0.2808	0.76278	-0.01
Mof_H 	H 	0.036	0.2803	0.7498	0.028
Mof_C 	C 	0.0204	0.8025	0.2844	-0.097
Mof_H 	H 	0.0348	0.8163	0.285	0.064
Mof_C 	C 	0.02101	0.7808	0.26278	-0.01
Mof_H 	H 	0.036	0.7803	0.2498	0.028
Mof_C 	C 	0.5204	0.3025	0.2844	-0.098
Mof_H 	H 	0.5348	0.3163	0.285	0.064
Mof_C 	C 	0.52101	0.2808	0.26278	-0.01
Mof_H 	H 	0.536	0.2803	0.2498	0.028
Mof_C 	C 	0.5204	0.8025	0.7844	-0.098
Mof_H 	H 	0.5348	0.8163	0.785	0.064
Mof_C 	C 	0.52101	0.7808	0.76278	-0.009
Mof_H 	H 	0.536	0.7803	0.7498	0.028
Mof_C 	C 	0.9796	0.3025	0.2156	-0.096
Mof_H 	H 	0.9652	0.3163	0.215	0.064
Mof_C 	C 	0.97899	0.2808	0.23722	-0.009
Mof_H 	H 	0.964	0.2803	0.2502	0.028
Mof_C 	C 	0.9796	0.8025	0.7156	-0.096
Mof_H 	H 	0.9652	0.8163	0.715	0.064
Mof_C 	C 	0.97899	0.7808	0.73722	-0.009
Mof_H 	H 	0.964	0.7803	0.7502	0.028
Mof_C 	C 	0.4796	0.3025	0.7156	-0.098
Mof_H 	H 	0.4652	0.3163	0.715	0.064
Mof_C 	C 	0.47899	0.2808	0.73722	-0.01
Mof_H 	H 	0.464	0.2803	0.7502	0.028
Mof_C 	C 	0.4796	0.8025	0.2156	-0.098
Mof_H 	H 	0.4652	0.8163	0.215	0.064
Mof_C 	C 	0.47899	0.7808	0.23722	-0.009
Mof_H 	H 	0.464	0.7803	0.2502	0.028
Mof_C 	C 	0.9796	0.6975	0.7844	-0.096
Mof_H 	H 	0.9652	0.6837	0.785	0.064
Mof_C 	C 	0.97899	0.7192	0.76278	-0.009
Mof_H 	H 	0.964	0.7197	0.7498	0.028
Mof_C 	C 	0.9796	0.1975	0.2844	-0.096
Mof_H 	H 	0.9652	0.1837	0.285	0.064
Mof_C 	C 	0.97899	0.2192	0.26278	-0.009
Mof_H 	H 	0.964	0.2197	0.2498	0.028
Mof_C 	C 	0.4796	0.6975	0.2844	-0.098
Mof_H 	H 	0.4652	0.6837	0.285	0.064
Mof_C 	C 	0.47899	0.7192	0.26278	-0.01
Mof_H 	H 	0.464	0.7197	0.2498	0.028
Mof_C 	C 	0.4796	0.1975	0.7844	-0.098
Mof_H 	H 	0.4652	0.1837	0.785	0.064
Mof_C 	C 	0.47899	0.2192	0.76278	-0.01
Mof_H 	H 	0.464	0.2197	0.7498	0.028
Mof_C 	C 	0.2156	0.0204	0.6975	-0.097
Mof_H 	H 	0.215	0.0348	0.6837	0.064
Mof_C 	C 	0.23722	0.02101	0.7192	-0.01
Mof_H 	H 	0.2502	0.036	0.7197	0.028
Mof_C 	C 	0.2156	0.5204	0.1975	-0.098
Mof_H 	H 	0.215	0.5348	0.1837	0.064
Mof_C 	C 	0.23722	0.52101	0.2192	-0.01
Mof_H 	H 	0.2502	0.536	0.2197	0.028
Mof_C 	C 	0.7156	0.0204	0.1975	-0.097
Mof_H 	H 	0.715	0.0348	0.1837	0.064
Mof_C 	C 	0.73722	0.02101	0.2192	-0.01
Mof_H 	H 	0.7502	0.036	0.2197	0.028
Mof_C 	C 	0.7156	0.5204	0.6975	-0.098
Mof_H 	H 	0.715	0.5348	0.6837	0.064
Mof_C 	C 	0.73722	0.52101	0.7192	-0.01
Mof_H 	H 	0.7502	0.536	0.7197	0.028
Mof_C 	C 	0.7844	0.0204	0.3025	-0.097
Mof_H 	H 	0.785	0.0348	0.3163	0.064
Mof_C 	C 	0.76278	0.02101	0.2808	-0.01
Mof_H 	H 	0.7498	0.036	0.2803	0.028
Mof_C 	C 	0.7844	0.5204	0.8025	-0.098
Mof_H 	H 	0.785	0.5348	0.8163	0.064
Mof_C 	C 	0.76278	0.52101	0.7808	-0.009
Mof_H 	H 	0.7498	0.536	0.7803	0.028
Mof_C 	C 	0.2844	0.0204	0.8025	-0.097
Mof_H 	H 	0.285	0.0348	0.8163	0.064
Mof_C 	C 	0.26278	0.02101	0.7808	-0.01
Mof_H 	H 	0.2498	0.036	0.7803	0.028
Mof_C 	C 	0.2844	0.5204	0.3025	-0.098
Mof_H 	H 	0.285	0.5348	0.3163	0.064
Mof_C 	C 	0.26278	0.52101	0.2808	-0.01
Mof_H 	H 	0.2498	0.536	0.2803	0.028
Mof_C 	C 	0.2156	0.9796	0.3025	-0.096
Mof_H 	H 	0.215	0.9652	0.3163	0.064
Mof_C 	C 	0.23722	0.97899	0.2808	-0.009
Mof_H 	H 	0.2502	0.964	0.2803	0.028
Mof_C 	C 	0.2156	0.4796	0.8025	-0.098
Mof_H 	H 	0.215	0.4652	0.8163	0.064
Mof_C 	C 	0.23722	0.47899	0.7808	-0.009
Mof_H 	H 	0.2502	0.464	0.7803	0.028
Mof_C 	C 	0.7156	0.9796	0.8025	-0.096
Mof_H 	H 	0.715	0.9652	0.8163	0.064
Mof_C 	C 	0.73722	0.97899	0.7808	-0.009
Mof_H 	H 	0.7502	0.964	0.7803	0.028
Mof_C 	C 	0.7156	0.4796	0.3025	-0.098
Mof_H 	H 	0.715	0.4652	0.3163	0.064
Mof_C 	C 	0.73722	0.47899	0.2808	-0.01
Mof_H 	H 	0.7502	0.464	0.2803	0.028
Mof_C 	C 	0.7844	0.9796	0.6975	-0.096
Mof_H 	H 	0.785	0.9652	0.6837	0.064
Mof_C 	C 	0.76278	0.97899	0.7192	-0.009
Mof_H 	H 	0.7498	0.964	0.7197	0.028
Mof_C 	C 	0.7844	0.4796	0.1975	-0.098
Mof_H 	H 	0.785	0.4652	0.1837	0.064
Mof_C 	C 	0.76278	0.47899	0.2192	-0.01
Mof_H 	H 	0.7498	0.464	0.2197	0.028
Mof_C 	C 	0.2844	0.9796	0.1975	-0.096
Mof_H 	H 	0.285	0.9652	0.1837	0.064
Mof_C 	C 	0.26278	0.97899	0.2192	-0.009
Mof_H 	H 	0.2498	0.964	0.2197	0.028
Mof_C 	C 	0.2844	0.4796	0.6975	-0.098
Mof_H 	H 	0.285	0.4652	0.6837	0.064
Mof_C 	C 	0.26278	0.47899	0.7192	-0.01
Mof_H 	H 	0.2498	0.464	0.7197	0.028
Mof_C 	C 	0.2156	0.6975	0.9796	-0.096
Mof_H 	H 	0.215	0.6837	0.9652	0.064
Mof_C 	C 	0.23722	0.7192	0.97899	-0.009
Mof_H 	H 	0.2502	0.7197	0.964	0.028
Mof_C 	C 	0.2156	0.1975	0.4796	-0.098
Mof_H 	H 	0.215	0.1837	0.4652	0.064
Mof_C 	C 	0.23722	0.2192	0.47899	-0.01
Mof_H 	H 	0.2502	0.2197	0.464	0.028
Mof_C 	C 	0.7156	0.6975	0.4796	-0.098
Mof_H 	H 	0.715	0.6837	0.4652	0.064
Mof_C 	C 	0.73722	0.7192	0.47899	-0.01
Mof_H 	H 	0.7502	0.7197	0.464	0.028
Mof_C 	C 	0.7156	0.1975	0.9796	-0.096
Mof_H 	H 	0.715	0.1837	0.9652	0.064
Mof_C 	C 	0.73722	0.2192	0.97899	-0.009
Mof_H 	H 	0.7502	0.2197	0.964	0.028
Mof_C 	C 	0.7844	0.3025	0.9796	-0.096
Mof_H 	H 	0.785	0.3163	0.9652	0.064
Mof_C 	C 	0.76278	0.2808	0.97899	-0.009
Mof_H 	H 	0.7498	0.2803	0.964	0.028
Mof_C 	C 	0.7844	0.8025	0.4796	-0.098
Mof_H 	H 	0.785	0.8163	0.4652	0.064
Mof_C 	C 	0.76278	0.7808	0.47899	-0.009
Mof_H 	H 	0.7498	0.7803	0.464	0.028
Mof_C 	C 	0.2844	0.3025	0.4796	-0.098
Mof_H 	H 	0.285	0.3163	0.4652	0.064
Mof_C 	C 	0.26278	0.2808	0.47899	-0.01
Mof_H 	H 	0.2498	0.2803	0.464	0.028
Mof_C 	C 	0.2844	0.8025	0.9796	-0.096
Mof_H 	H 	0.285	0.8163	0.9652	0.064
Mof_C 	C 	0.26278	0.7808	0.97899	-0.009
Mof_H 	H 	0.2498	0.7803	0.964	0.028
Mof_C 	C 	0.2156	0.3025	0.0204	-0.097
Mof_H 	H 	0.215	0.3163	0.0348	0.064
Mof_C 	C 	0.23722	0.2808	0.02101	-0.01
Mof_H 	H 	0.2502	0.2803	0.036	0.028
Mof_C 	C 	0.2156	0.8025	0.5204	-0.098
Mof_H 	H 	0.215	0.8163	0.5348	0.064
Mof_C 	C 	0.23722	0.7808	0.52101	-0.009
Mof_H 	H 	0.2502	0.7803	0.536	0.028
Mof_C 	C 	0.7156	0.3025	0.5204	-0.098
Mof_H 	H 	0.715	0.3163	0.5348	0.064
Mof_C 	C 	0.73722	0.2808	0.52101	-0.01
Mof_H 	H 	0.7502	0.2803	0.536	0.028
Mof_C 	C 	0.7156	0.8025	0.0204	-0.097
Mof_H 	H 	0.715	0.8163	0.0348	0.064
Mof_C 	C 	0.73722	0.7808	0.02101	-0.01
Mof_H 	H 	0.7502	0.7803	0.036	0.028
Mof_C 	C 	0.7844	0.6975	0.0204	-0.097
Mof_H 	H 	0.785	0.6837	0.0348	0.064
Mof_C 	C 	0.76278	0.7192	0.02101	-0.01
Mof_H 	H 	0.7498	0.7197	0.036	0.028
Mof_C 	C 	0.7844	0.1975	0.5204	-0.098
Mof_H 	H 	0.785	0.1837	0.5348	0.064
Mof_C 	C 	0.76278	0.2192	0.52101	-0.01
Mof_H 	H 	0.7498	0.2197	0.536	0.028
Mof_C 	C 	0.2844	0.6975	0.5204	-0.098
Mof_H 	H 	0.285	0.6837	0.5348	0.064
Mof_C 	C 	0.26278	0.7192	0.52101	-0.01
Mof_H 	H 	0.2498	0.7197	0.536	0.028
Mof_C 	C 	0.2844	0.1975	0.0204	-0.097
Mof_H 	H 	0.285	0.1837	0.0348	0.064
Mof_C 	C 	0.26278	0.2192	0.02101	-0.01
Mof_H 	H 	0.2498	0.2197	0.036	0.028
Mof_C 	C 	0.6975	0.0204	0.7844	-0.097
Mof_H 	H 	0.6837	0.0348	0.785	0.064
Mof_C 	C 	0.7192	0.02101	0.76278	-0.01
Mof_H 	H 	0.7197	0.036	0.7498	0.028
Mof_C 	C 	0.6975	0.5204	0.2844	-0.098
Mof_H 	H 	0.6837	0.5348	0.285	0.064
Mof_C 	C 	0.7192	0.52101	0.26278	-0.01
Mof_H 	H 	0.7197	0.536	0.2498	0.028
Mof_C 	C 	0.1975	0.0204	0.2844	-0.097
Mof_H 	H 	0.1837	0.0348	0.285	0.064
Mof_C 	C 	0.2192	0.02101	0.26278	-0.01
Mof_H 	H 	0.2197	0.036	0.2498	0.028
Mof_C 	C 	0.1975	0.5204	0.7844	-0.098
Mof_H 	H 	0.1837	0.5348	0.785	0.064
Mof_C 	C 	0.2192	0.52101	0.76278	-0.01
Mof_H 	H 	0.2197	0.536	0.7498	0.028
Mof_C 	C 	0.3025	0.0204	0.2156	-0.097
Mof_H 	H 	0.3163	0.0348	0.215	0.064
Mof_C 	C 	0.2808	0.02101	0.23722	-0.01
Mof_H 	H 	0.2803	0.036	0.2502	0.028
Mof_C 	C 	0.3025	0.5204	0.7156	-0.098
Mof_H 	H 	0.3163	0.5348	0.715	0.064
Mof_C 	C 	0.2808	0.52101	0.73722	-0.01
Mof_H 	H 	0.2803	0.536	0.7502	0.028
Mof_C 	C 	0.8025	0.0204	0.7156	-0.097
Mof_H 	H 	0.8163	0.0348	0.715	0.064
Mof_C 	C 	0.7808	0.02101	0.73722	-0.011
Mof_H 	H 	0.7803	0.036	0.7502	0.027
Mof_C 	C 	0.8025	0.5204	0.2156	-0.099
Mof_H 	H 	0.8163	0.5348	0.215	0.063
Mof_C 	C 	0.7808	0.52101	0.23722	-0.01
Mof_H 	H 	0.7803	0.536	0.2502	0.027
Mof_C 	C 	0.3025	0.9796	0.7844	-0.097
Mof_H 	H 	0.3163	0.9652	0.785	0.063
Mof_C 	C 	0.2808	0.97899	0.76278	-0.01
Mof_H 	H 	0.2803	0.964	0.7498	0.027
Mof_C 	C 	0.3025	0.4796	0.2844	-0.099
Mof_H 	H 	0.3163	0.4652	0.285	0.063
Mof_C 	C 	0.2808	0.47899	0.26278	-0.011
Mof_H 	H 	0.2803	0.464	0.2498	0.027
Mof_C 	C 	0.8025	0.9796	0.2844	-0.097
Mof_H 	H 	0.8163	0.9652	0.285	0.063
Mof_C 	C 	0.7808	0.97899	0.26278	-0.01
Mof_H 	H 	0.7803	0.964	0.2498	0.027
Mof_C 	C 	0.8025	0.4796	0.7844	-0.099
Mof_H 	H 	0.8163	0.4652	0.785	0.063
Mof_C 	C 	0.7808	0.47899	0.76278	-0.01
Mof_H 	H 	0.7803	0.464	0.7498	0.027
Mof_C 	C 	0.6975	0.9796	0.2156	-0.097
Mof_H 	H 	0.6837	0.9652	0.215	0.063
Mof_C 	C 	0.7192	0.97899	0.23722	-0.01
Mof_H 	H 	0.7197	0.964	0.2502	0.027
Mof_C 	C 	0.6975	0.4796	0.7156	-0.099
Mof_H 	H 	0.6837	0.4652	0.715	0.063
Mof_C 	C 	0.7192	0.47899	0.73722	-0.011
Mof_H 	H 	0.7197	0.464	0.7502	0.027
Mof_C 	C 	0.1975	0.9796	0.7156	-0.097
Mof_H 	H 	0.1837	0.9652	0.715	0.063
Mof_C 	C 	0.2192	0.97899	0.73722	-0.01
Mof_H 	H 	0.2197	0.964	0.7502	0.027
Mof_C 	C 	0.1975	0.4796	0.2156	-0.099
Mof_H 	H 	0.1837	0.4652	0.215	0.063
Mof_C 	C 	0.2192	0.47899	0.23722	-0.011
Mof_H 	H 	0.2197	0.464	0.2502	0.027
Mof_C 	C 	0.0204	0.2156	0.3025	-0.098
Mof_H 	H 	0.0348	0.215	0.3163	0.063
Mof_C 	C 	0.02101	0.23722	0.2808	-0.011
Mof_H 	H 	0.036	0.2502	0.2803	0.027
Mof_C 	C 	0.0204	0.7156	0.8025	-0.098
Mof_H 	H 	0.0348	0.715	0.8163	0.063
Mof_C 	C 	0.02101	0.73722	0.7808	-0.011
Mof_H 	H 	0.036	0.7502	0.7803	0.027
Mof_C 	C 	0.5204	0.2156	0.8025	-0.099
Mof_H 	H 	0.5348	0.215	0.8163	0.063
Mof_C 	C 	0.52101	0.23722	0.7808	-0.01
Mof_H 	H 	0.536	0.2502	0.7803	0.027
Mof_C 	C 	0.5204	0.7156	0.3025	-0.099
Mof_H 	H 	0.5348	0.715	0.3163	0.063
Mof_C 	C 	0.52101	0.73722	0.2808	-0.011
Mof_H 	H 	0.536	0.7502	0.2803	0.027
Mof_C 	C 	0.0204	0.7844	0.6975	-0.098
Mof_H 	H 	0.0348	0.785	0.6837	0.063
Mof_C 	C 	0.02101	0.76278	0.7192	-0.011
Mof_H 	H 	0.036	0.7498	0.7197	0.027
Mof_C 	C 	0.0204	0.2844	0.1975	-0.098
Mof_H 	H 	0.0348	0.285	0.1837	0.063
Mof_C 	C 	0.02101	0.26278	0.2192	-0.011
Mof_H 	H 	0.036	0.2498	0.2197	0.027
Mof_C 	C 	0.5204	0.7844	0.1975	-0.099
Mof_H 	H 	0.5348	0.785	0.1837	0.063
Mof_C 	C 	0.52101	0.76278	0.2192	-0.011
Mof_H 	H 	0.536	0.7498	0.2197	0.027
Mof_C 	C 	0.5204	0.2844	0.6975	-0.099
Mof_H 	H 	0.5348	0.285	0.6837	0.063
Mof_C 	C 	0.52101	0.26278	0.7192	-0.011
Mof_H 	H 	0.536	0.2498	0.7197	0.027
Mof_C 	C 	0.9796	0.2156	0.6975	-0.097
Mof_H 	H 	0.9652	0.215	0.6837	0.063
Mof_C 	C 	0.97899	0.23722	0.7192	-0.01
Mof_H 	H 	0.964	0.2502	0.7197	0.027
Mof_C 	C 	0.9796	0.7156	0.1975	-0.097
Mof_H 	H 	0.9652	0.715	0.1837	0.063
Mof_C 	C 	0.97899	0.73722	0.2192	-0.01
Mof_H 	H 	0.964	0.7502	0.2197	0.027
Mof_C 	C 	0.4796	0.2156	0.1975	-0.099
Mof_H 	H 	0.4652	0.215	0.1837	0.063
Mof_C 	C 	0.47899	0.23722	0.2192	-0.011
Mof_H 	H 	0.464	0.2502	0.2197	0.027
Mof_C 	C 	0.4796	0.7156	0.6975	-0.099
Mof_H 	H 	0.4652	0.715	0.6837	0.063
Mof_C 	C 	0.47899	0.73722	0.7192	-0.011
Mof_H 	H 	0.464	0.7502	0.7197	0.027
Mof_C 	C 	0.9796	0.7844	0.3025	-0.097
Mof_H 	H 	0.9652	0.785	0.3163	0.063
Mof_C 	C 	0.97899	0.76278	0.2808	-0.01
Mof_H 	H 	0.964	0.7498	0.2803	0.027
Mof_C 	C 	0.9796	0.2844	0.8025	-0.097
Mof_H 	H 	0.9652	0.285	0.8163	0.063
Mof_C 	C 	0.97899	0.26278	0.7808	-0.01
Mof_H 	H 	0.964	0.2498	0.7803	0.027
Mof_C 	C 	0.4796	0.7844	0.8025	-0.099
Mof_H 	H 	0.4652	0.785	0.8163	0.063
Mof_C 	C 	0.47899	0.76278	0.7808	-0.01
Mof_H 	H 	0.464	0.7498	0.7803	0.027
Mof_C 	C 	0.4796	0.2844	0.3025	-0.099
Mof_H 	H 	0.4652	0.285	0.3163	0.063
Mof_C 	C 	0.47899	0.26278	0.2808	-0.011
Mof_H 	H 	0.464	0.2498	0.2803	0.027
Mof_C 	C 	0.3025	0.7844	0.9796	-0.097
Mof_H 	H 	0.3163	0.785	0.9652	0.063
Mof_C 	C 	0.2808	0.76278	0.97899	-0.01
Mof_H 	H 	0.2803	0.7498	0.964	0.027
Mof_C 	C 	0.3025	0.2844	0.4796	-0.099
Mof_H 	H 	0.3163	0.285	0.4652	0.063
Mof_C 	C 	0.2808	0.26278	0.47899	-0.011
Mof_H 	H 	0.2803	0.2498	0.464	0.027
Mof_C 	C 	0.8025	0.7844	0.4796	-0.099
Mof_H 	H 	0.8163	0.785	0.4652	0.063
Mof_C 	C 	0.7808	0.76278	0.47899	-0.01
Mof_H 	H 	0.7803	0.7498	0.464	0.027
Mof_C 	C 	0.8025	0.2844	0.9796	-0.097
Mof_H 	H 	0.8163	0.285	0.9652	0.063
Mof_C 	C 	0.7808	0.26278	0.97899	-0.01
Mof_H 	H 	0.7803	0.2498	0.964	0.027
Mof_C 	C 	0.6975	0.2156	0.9796	-0.097
Mof_H 	H 	0.6837	0.215	0.9652	0.063
Mof_C 	C 	0.7192	0.23722	0.97899	-0.01
Mof_H 	H 	0.7197	0.2502	0.964	0.027
Mof_C 	C 	0.6975	0.7156	0.4796	-0.099
Mof_H 	H 	0.6837	0.715	0.4652	0.063
Mof_C 	C 	0.7192	0.73722	0.47899	-0.011
Mof_H 	H 	0.7197	0.7502	0.464	0.027
Mof_C 	C 	0.1975	0.2156	0.4796	-0.099
Mof_H 	H 	0.1837	0.215	0.4652	0.063
Mof_C 	C 	0.2192	0.23722	0.47899	-0.011
Mof_H 	H 	0.2197	0.2502	0.464	0.027
Mof_C 	C 	0.1975	0.7156	0.9796	-0.097
Mof_H 	H 	0.1837	0.715	0.9652	0.063
Mof_C 	C 	0.2192	0.73722	0.97899	-0.01
Mof_H 	H 	0.2197	0.7502	0.964	0.027
Mof_C 	C 	0.6975	0.7844	0.0204	-0.098
Mof_H 	H 	0.6837	0.785	0.0348	0.063
Mof_C 	C 	0.7192	0.76278	0.02101	-0.011
Mof_H 	H 	0.7197	0.7498	0.036	0.027
Mof_C 	C 	0.6975	0.2844	0.5204	-0.099
Mof_H 	H 	0.6837	0.285	0.5348	0.063
Mof_C 	C 	0.7192	0.26278	0.52101	-0.011
Mof_H 	H 	0.7197	0.2498	0.536	0.027
Mof_C 	C 	0.1975	0.7844	0.5204	-0.099
Mof_H 	H 	0.1837	0.785	0.5348	0.063
Mof_C 	C 	0.2192	0.76278	0.52101	-0.011
Mof_H 	H 	0.2197	0.7498	0.536	0.027
Mof_C 	C 	0.1975	0.2844	0.0204	-0.098
Mof_H 	H 	0.1837	0.285	0.0348	0.063
Mof_C 	C 	0.2192	0.26278	0.02101	-0.011
Mof_H 	H 	0.2197	0.2498	0.036	0.027
Mof_C 	C 	0.3025	0.2156	0.0204	-0.098
Mof_H 	H 	0.3163	0.215	0.0348	0.063
Mof_C 	C 	0.2808	0.23722	0.02101	-0.011
Mof_H 	H 	0.2803	0.2502	0.036	0.027
Mof_C 	C 	0.3025	0.7156	0.5204	-0.099
Mof_H 	H 	0.3163	0.715	0.5348	0.063
Mof_C 	C 	0.2808	0.73722	0.52101	-0.011
Mof_H 	H 	0.2803	0.7502	0.536	0.027
Mof_C 	C 	0.8025	0.2156	0.5204	-0.099
Mof_H 	H 	0.8163	0.215	0.5348	0.063
Mof_C 	C 	0.7808	0.23722	0.52101	-0.01
Mof_H 	H 	0.7803	0.2502	0.536	0.027
Mof_C 	C 	0.8025	0.7156	0.0204	-0.098
Mof_H 	H 	0.8163	0.715	0.0348	0.063
Mof_C 	C 	0.7808	0.73722	0.02101	-0.011
Mof_H 	H 	0.7803	0.7502	0.036	0.027
Mof_C 	C 	0.9796	0.3025	0.7844	-0.097
Mof_H 	H 	0.9652	0.3163	0.785	0.063
Mof_C 	C 	0.97899	0.2808	0.76278	-0.01
Mof_H 	H 	0.964	0.2803	0.7498	0.027
Mof_C 	C 	0.9796	0.8025	0.2844	-0.097
Mof_H 	H 	0.9652	0.8163	0.285	0.063
Mof_C 	C 	0.97899	0.7808	0.26278	-0.01
Mof_H 	H 	0.964	0.7803	0.2498	0.027
Mof_C 	C 	0.4796	0.3025	0.2844	-0.099
Mof_H 	H 	0.4652	0.3163	0.285	0.063
Mof_C 	C 	0.47899	0.2808	0.26278	-0.011
Mof_H 	H 	0.464	0.2803	0.2498	0.027
Mof_C 	C 	0.4796	0.8025	0.7844	-0.099
Mof_H 	H 	0.4652	0.8163	0.785	0.063
Mof_C 	C 	0.47899	0.7808	0.76278	-0.01
Mof_H 	H 	0.464	0.7803	0.7498	0.027
Mof_C 	C 	0.9796	0.6975	0.2156	-0.097
Mof_H 	H 	0.9652	0.6837	0.215	0.063
Mof_C 	C 	0.97899	0.7192	0.23722	-0.01
Mof_H 	H 	0.964	0.7197	0.2502	0.027
Mof_C 	C 	0.9796	0.1975	0.7156	-0.097
Mof_H 	H 	0.9652	0.1837	0.715	0.063
Mof_C 	C 	0.97899	0.2192	0.73722	-0.01
Mof_H 	H 	0.964	0.2197	0.7502	0.027
Mof_C 	C 	0.4796	0.6975	0.7156	-0.099
Mof_H 	H 	0.4652	0.6837	0.715	0.063
Mof_C 	C 	0.47899	0.7192	0.73722	-0.011
Mof_H 	H 	0.464	0.7197	0.7502	0.027
Mof_C 	C 	0.4796	0.1975	0.2156	-0.099
Mof_H 	H 	0.4652	0.1837	0.215	0.063
Mof_C 	C 	0.47899	0.2192	0.23722	-0.011
Mof_H 	H 	0.464	0.2197	0.2502	0.027
Mof_C 	C 	0.0204	0.6975	0.7844	-0.098
Mof_H 	H 	0.0348	0.6837	0.785	0.063
Mof_C 	C 	0.02101	0.7192	0.76278	-0.011
Mof_H 	H 	0.036	0.7197	0.7498	0.027
Mof_C 	C 	0.0204	0.1975	0.2844	-0.098
Mof_H 	H 	0.0348	0.1837	0.285	0.063
Mof_C 	C 	0.02101	0.2192	0.26278	-0.011
Mof_H 	H 	0.036	0.2197	0.2498	0.027
Mof_C 	C 	0.5204	0.6975	0.2844	-0.099
Mof_H 	H 	0.5348	0.6837	0.285	0.063
Mof_C 	C 	0.52101	0.7192	0.26278	-0.011
Mof_H 	H 	0.536	0.7197	0.2498	0.027
Mof_C 	C 	0.5204	0.1975	0.7844	-0.099
Mof_H 	H 	0.5348	0.1837	0.785	0.063
Mof_C 	C 	0.52101	0.2192	0.76278	-0.011
Mof_H 	H 	0.536	0.2197	0.7498	0.027
Mof_C 	C 	0.0204	0.3025	0.2156	-0.098
Mof_H 	H 	0.0348	0.3163	0.215	0.063
Mof_C 	C 	0.02101	0.2808	0.23722	-0.011
Mof_H 	H 	0.036	0.2803	0.2502	0.027
Mof_C 	C 	0.0204	0.8025	0.7156	-0.098
Mof_H 	H 	0.0348	0.8163	0.715	0.063
Mof_C 	C 	0.02101	0.7808	0.73722	-0.011
Mof_H 	H 	0.036	0.7803	0.7502	0.027
Mof_C 	C 	0.5204	0.3025	0.7156	-0.099
Mof_H 	H 	0.5348	0.3163	0.715	0.063
Mof_C 	C 	0.52101	0.2808	0.73722	-0.011
Mof_H 	H 	0.536	0.2803	0.7502	0.027
Mof_C 	C 	0.5204	0.8025	0.2156	-0.099
Mof_H 	H 	0.5348	0.8163	0.215	0.063
Mof_C 	C 	0.52101	0.7808	0.23722	-0.01
Mof_H 	H 	0.536	0.7803	0.2502	0.027
Mof_C 	C 	0.7844	0.9796	0.3025	-0.097
Mof_H 	H 	0.785	0.9652	0.3163	0.063
Mof_C 	C 	0.76278	0.97899	0.2808	-0.01
Mof_H 	H 	0.7498	0.964	0.2803	0.027
Mof_C 	C 	0.7844	0.4796	0.8025	-0.099
Mof_H 	H 	0.785	0.4652	0.8163	0.063
Mof_C 	C 	0.76278	0.47899	0.7808	-0.01
Mof_H 	H 	0.7498	0.464	0.7803	0.027
Mof_C 	C 	0.2844	0.9796	0.8025	-0.097
Mof_H 	H 	0.285	0.9652	0.8163	0.063
Mof_C 	C 	0.26278	0.97899	0.7808	-0.01
Mof_H 	H 	0.2498	0.964	0.7803	0.027
Mof_C 	C 	0.2844	0.4796	0.3025	-0.099
Mof_H 	H 	0.285	0.4652	0.3163	0.063
Mof_C 	C 	0.26278	0.47899	0.2808	-0.011
Mof_H 	H 	0.2498	0.464	0.2803	0.027
Mof_C 	C 	0.2156	0.9796	0.6975	-0.097
Mof_H 	H 	0.215	0.9652	0.6837	0.063
Mof_C 	C 	0.23722	0.97899	0.7192	-0.01
Mof_H 	H 	0.2502	0.964	0.7197	0.027
Mof_C 	C 	0.2156	0.4796	0.1975	-0.099
Mof_H 	H 	0.215	0.4652	0.1837	0.063
Mof_C 	C 	0.23722	0.47899	0.2192	-0.011
Mof_H 	H 	0.2502	0.464	0.2197	0.027
Mof_C 	C 	0.7156	0.9796	0.1975	-0.097
Mof_H 	H 	0.715	0.9652	0.1837	0.063
Mof_C 	C 	0.73722	0.97899	0.2192	-0.01
Mof_H 	H 	0.7502	0.964	0.2197	0.027
Mof_C 	C 	0.7156	0.4796	0.6975	-0.099
Mof_H 	H 	0.715	0.4652	0.6837	0.063
Mof_C 	C 	0.73722	0.47899	0.7192	-0.011
Mof_H 	H 	0.7502	0.464	0.7197	0.027
Mof_C 	C 	0.7844	0.0204	0.6975	-0.098
Mof_H 	H 	0.785	0.0348	0.6837	0.063
Mof_C 	C 	0.76278	0.02101	0.7192	-0.011
Mof_H 	H 	0.7498	0.036	0.7197	0.027
Mof_C 	C 	0.7844	0.5204	0.1975	-0.099
Mof_H 	H 	0.785	0.5348	0.1837	0.063
Mof_C 	C 	0.76278	0.52101	0.2192	-0.011
Mof_H 	H 	0.7498	0.536	0.2197	0.027
Mof_C 	C 	0.2844	0.0204	0.1975	-0.098
Mof_H 	H 	0.285	0.0348	0.1837	0.063
Mof_C 	C 	0.26278	0.02101	0.2192	-0.011
Mof_H 	H 	0.2498	0.036	0.2197	0.027
Mof_C 	C 	0.2844	0.5204	0.6975	-0.099
Mof_H 	H 	0.285	0.5348	0.6837	0.063
Mof_C 	C 	0.26278	0.52101	0.7192	-0.011
Mof_H 	H 	0.2498	0.536	0.7197	0.027
Mof_C 	C 	0.2156	0.0204	0.3025	-0.098
Mof_H 	H 	0.215	0.0348	0.3163	0.063
Mof_C 	C 	0.23722	0.02101	0.2808	-0.011
Mof_H 	H 	0.2502	0.036	0.2803	0.027
Mof_C 	C 	0.2156	0.5204	0.8025	-0.099
Mof_H 	H 	0.215	0.5348	0.8163	0.063
Mof_C 	C 	0.23722	0.52101	0.7808	-0.01
Mof_H 	H 	0.2502	0.536	0.7803	0.027
Mof_C 	C 	0.7156	0.0204	0.8025	-0.098
Mof_H 	H 	0.715	0.0348	0.8163	0.063
Mof_C 	C 	0.73722	0.02101	0.7808	-0.011
Mof_H 	H 	0.7502	0.036	0.7803	0.027
Mof_C 	C 	0.7156	0.5204	0.3025	-0.099
Mof_H 	H 	0.715	0.5348	0.3163	0.063
Mof_C 	C 	0.73722	0.52101	0.2808	-0.011
Mof_H 	H 	0.7502	0.536	0.2803	0.027
Mof_C 	C 	0.7844	0.3025	0.0204	-0.098
Mof_H 	H 	0.785	0.3163	0.0348	0.063
Mof_C 	C 	0.76278	0.2808	0.02101	-0.011
Mof_H 	H 	0.7498	0.2803	0.036	0.027
Mof_C 	C 	0.7844	0.8025	0.5204	-0.099
Mof_H 	H 	0.785	0.8163	0.5348	0.063
Mof_C 	C 	0.76278	0.7808	0.52101	-0.01
Mof_H 	H 	0.7498	0.7803	0.536	0.027
Mof_C 	C 	0.2844	0.3025	0.5204	-0.099
Mof_H 	H 	0.285	0.3163	0.5348	0.063
Mof_C 	C 	0.26278	0.2808	0.52101	-0.011
Mof_H 	H 	0.2498	0.2803	0.536	0.027
Mof_C 	C 	0.2844	0.8025	0.0204	-0.098
Mof_H 	H 	0.285	0.8163	0.0348	0.063
Mof_C 	C 	0.26278	0.7808	0.02101	-0.011
Mof_H 	H 	0.2498	0.7803	0.036	0.027
Mof_C 	C 	0.2156	0.6975	0.0204	-0.098
Mof_H 	H 	0.215	0.6837	0.0348	0.063
Mof_C 	C 	0.23722	0.7192	0.02101	-0.011
Mof_H 	H 	0.2502	0.7197	0.036	0.027
Mof_C 	C 	0.2156	0.1975	0.5204	-0.099
Mof_H 	H 	0.215	0.1837	0.5348	0.063
Mof_C 	C 	0.23722	0.2192	0.52101	-0.011
Mof_H 	H 	0.2502	0.2197	0.536	0.027
Mof_C 	C 	0.7156	0.6975	0.5204	-0.099
Mof_H 	H 	0.715	0.6837	0.5348	0.063
Mof_C 	C 	0.73722	0.7192	0.52101	-0.011
Mof_H 	H 	0.7502	0.7197	0.536	0.027
Mof_C 	C 	0.7156	0.1975	0.0204	-0.098
Mof_H 	H 	0.715	0.1837	0.0348	0.063
Mof_C 	C 	0.73722	0.2192	0.02101	-0.011
Mof_H 	H 	0.7502	0.2197	0.036	0.027
Mof_C 	C 	0.7844	0.6975	0.9796	-0.097
Mof_H 	H 	0.785	0.6837	0.9652	0.063
Mof_C 	C 	0.76278	0.7192	0.97899	-0.01
Mof_H 	H 	0.7498	0.7197	0.964	0.027
Mof_C 	C 	0.7844	0.1975	0.4796	-0.099
Mof_H 	H 	0.785	0.1837	0.4652	0.063
Mof_C 	C 	0.76278	0.2192	0.47899	-0.011
Mof_H 	H 	0.7498	0.2197	0.464	0.027
Mof_C 	C 	0.2844	0.6975	0.4796	-0.099
Mof_H 	H 	0.285	0.6837	0.4652	0.063
Mof_C 	C 	0.26278	0.7192	0.47899	-0.011
Mof_H 	H 	0.2498	0.7197	0.464	0.027
Mof_C 	C 	0.2844	0.1975	0.9796	-0.097
Mof_H 	H 	0.285	0.1837	0.9652	0.063
Mof_C 	C 	0.26278	0.2192	0.97899	-0.01
Mof_H 	H 	0.2498	0.2197	0.964	0.027
Mof_C 	C 	0.2156	0.3025	0.9796	-0.097
Mof_H 	H 	0.215	0.3163	0.9652	0.063
Mof_C 	C 	0.23722	0.2808	0.97899	-0.01
Mof_H 	H 	0.2502	0.2803	0.964	0.027
Mof_C 	C 	0.2156	0.8025	0.4796	-0.099
Mof_H 	H 	0.215	0.8163	0.4652	0.063
Mof_C 	C 	0.23722	0.7808	0.47899	-0.01
Mof_H 	H 	0.2502	0.7803	0.464	0.027
Mof_C 	C 	0.7156	0.3025	0.4796	-0.099
Mof_H 	H 	0.715	0.3163	0.4652	0.063
Mof_C 	C 	0.73722	0.2808	0.47899	-0.011
Mof_H 	H 	0.7502	0.2803	0.464	0.027
Mof_C 	C 	0.7156	0.8025	0.9796	-0.097
Mof_H 	H 	0.715	0.8163	0.9652	0.063
Mof_C 	C 	0.73722	0.7808	0.97899	-0.01
Mof_H 	H 	0.7502	0.7803	0.964	0.027
Mof_C 	C 	0.3025	0.9796	0.2156	-0.097
Mof_H 	H 	0.3163	0.9652	0.215	0.063
Mof_C 	C 	0.2808	0.97899	0.23722	-0.01
Mof_H 	H 	0.2803	0.964	0.2502	0.027
Mof_C 	C 	0.3025	0.4796	0.7156	-0.099
Mof_H 	H 	0.3163	0.4652	0.715	0.063
Mof_C 	C 	0.2808	0.47899	0.73722	-0.011
Mof_H 	H 	0.2803	0.464	0.7502	0.027
Mof_C 	C 	0.8025	0.9796	0.7156	-0.097
Mof_H 	H 	0.8163	0.9652	0.715	0.063
Mof_C 	C 	0.7808	0.97899	0.73722	-0.01
Mof_H 	H 	0.7803	0.964	0.7502	0.027
Mof_C 	C 	0.8025	0.4796	0.2156	-0.099
Mof_H 	H 	0.8163	0.4652	0.215	0.063
Mof_C 	C 	0.7808	0.47899	0.23722	-0.01
Mof_H 	H 	0.7803	0.464	0.2502	0.027
Mof_C 	C 	0.6975	0.9796	0.7844	-0.097
Mof_H 	H 	0.6837	0.9652	0.785	0.063
Mof_C 	C 	0.7192	0.97899	0.76278	-0.01
Mof_H 	H 	0.7197	0.964	0.7498	0.027
Mof_C 	C 	0.6975	0.4796	0.2844	-0.099
Mof_H 	H 	0.6837	0.4652	0.285	0.063
Mof_C 	C 	0.7192	0.47899	0.26278	-0.011
Mof_H 	H 	0.7197	0.464	0.2498	0.027
Mof_C 	C 	0.1975	0.9796	0.2844	-0.097
Mof_H 	H 	0.1837	0.9652	0.285	0.063
Mof_C 	C 	0.2192	0.97899	0.26278	-0.01
Mof_H 	H 	0.2197	0.964	0.2498	0.027
Mof_C 	C 	0.1975	0.4796	0.7844	-0.099
Mof_H 	H 	0.1837	0.4652	0.785	0.063
Mof_C 	C 	0.2192	0.47899	0.76278	-0.011
Mof_H 	H 	0.2197	0.464	0.7498	0.027
Mof_C 	C 	0.6975	0.0204	0.2156	-0.098
Mof_H 	H 	0.6837	0.0348	0.215	0.063
Mof_C 	C 	0.7192	0.02101	0.23722	-0.011
Mof_H 	H 	0.7197	0.036	0.2502	0.027
Mof_C 	C 	0.6975	0.5204	0.7156	-0.099
Mof_H 	H 	0.6837	0.5348	0.715	0.063
Mof_C 	C 	0.7192	0.52101	0.73722	-0.011
Mof_H 	H 	0.7197	0.536	0.7502	0.027
Mof_C 	C 	0.1975	0.0204	0.7156	-0.098
Mof_H 	H 	0.1837	0.0348	0.715	0.063
Mof_C 	C 	0.2192	0.02101	0.73722	-0.011
Mof_H 	H 	0.2197	0.036	0.7502	0.027
Mof_C 	C 	0.1975	0.5204	0.2156	-0.099
Mof_H 	H 	0.1837	0.5348	0.215	0.063
Mof_C 	C 	0.2192	0.52101	0.23722	-0.011
Mof_H 	H 	0.2197	0.536	0.2502	0.027
Mof_C 	C 	0.3025	0.0204	0.7844	-0.098
Mof_H 	H 	0.3163	0.0348	0.785	0.063
Mof_C 	C 	0.2808	0.02101	0.76278	-0.011
Mof_H 	H 	0.2803	0.036	0.7498	0.027
Mof_C 	C 	0.3025	0.5204	0.2844	-0.099
Mof_H 	H 	0.3163	0.5348	0.285	0.063
Mof_C 	C 	0.2808	0.52101	0.26278	-0.011
Mof_H 	H 	0.2803	0.536	0.2498	0.027
Mof_C 	C 	0.8025	0.0204	0.2844	-0.098
Mof_H 	H 	0.8163	0.0348	0.285	0.063
Mof_C 	C 	0.7808	0.02101	0.26278	-0.011
Mof_H 	H 	0.7803	0.036	0.2498	0.027
Mof_C 	C 	0.8025	0.5204	0.7844	-0.099
Mof_H 	H 	0.8163	0.5348	0.785	0.063
Mof_C 	C 	0.7808	0.52101	0.76278	-0.01
Mof_H 	H 	0.7803	0.536	0.7498	0.027
Mof_C 	C 	0.9796	0.7844	0.6975	-0.097
Mof_H 	H 	0.9652	0.785	0.6837	0.063
Mof_C 	C 	0.97899	0.76278	0.7192	-0.01
Mof_H 	H 	0.964	0.7498	0.7197	0.027
Mof_C 	C 	0.9796	0.2844	0.1975	-0.097
Mof_H 	H 	0.9652	0.285	0.1837	0.063
Mof_C 	C 	0.97899	0.26278	0.2192	-0.01
Mof_H 	H 	0.964	0.2498	0.2197	0.027
Mof_C 	C 	0.4796	0.7844	0.1975	-0.099
Mof_H 	H 	0.4652	0.785	0.1837	0.063
Mof_C 	C 	0.47899	0.76278	0.2192	-0.011
Mof_H 	H 	0.464	0.7498	0.2197	0.027
Mof_C 	C 	0.4796	0.2844	0.6975	-0.099
Mof_H 	H 	0.4652	0.285	0.6837	0.063
Mof_C 	C 	0.47899	0.26278	0.7192	-0.011
Mof_H 	H 	0.464	0.2498	0.7197	0.027
Mof_C 	C 	0.9796	0.2156	0.3025	-0.097
Mof_H 	H 	0.9652	0.215	0.3163	0.063
Mof_C 	C 	0.97899	0.23722	0.2808	-0.01
Mof_H 	H 	0.964	0.2502	0.2803	0.027
Mof_C 	C 	0.9796	0.7156	0.8025	-0.097
Mof_H 	H 	0.9652	0.715	0.8163	0.063
Mof_C 	C 	0.97899	0.73722	0.7808	-0.01
Mof_H 	H 	0.964	0.7502	0.7803	0.027
Mof_C 	C 	0.4796	0.2156	0.8025	-0.099
Mof_H 	H 	0.4652	0.215	0.8163	0.063
Mof_C 	C 	0.47899	0.23722	0.7808	-0.01
Mof_H 	H 	0.464	0.2502	0.7803	0.027
Mof_C 	C 	0.4796	0.7156	0.3025	-0.099
Mof_H 	H 	0.4652	0.715	0.3163	0.063
Mof_C 	C 	0.47899	0.73722	0.2808	-0.011
Mof_H 	H 	0.464	0.7502	0.2803	0.027
Mof_C 	C 	0.0204	0.7844	0.3025	-0.098
Mof_H 	H 	0.0348	0.785	0.3163	0.063
Mof_C 	C 	0.02101	0.76278	0.2808	-0.011
Mof_H 	H 	0.036	0.7498	0.2803	0.027
Mof_C 	C 	0.0204	0.2844	0.8025	-0.098
Mof_H 	H 	0.0348	0.285	0.8163	0.063
Mof_C 	C 	0.02101	0.26278	0.7808	-0.011
Mof_H 	H 	0.036	0.2498	0.7803	0.027
Mof_C 	C 	0.5204	0.7844	0.8025	-0.099
Mof_H 	H 	0.5348	0.785	0.8163	0.063
Mof_C 	C 	0.52101	0.76278	0.7808	-0.01
Mof_H 	H 	0.536	0.7498	0.7803	0.027
Mof_C 	C 	0.5204	0.2844	0.3025	-0.099
Mof_H 	H 	0.5348	0.285	0.3163	0.063
Mof_C 	C 	0.52101	0.26278	0.2808	-0.011
Mof_H 	H 	0.536	0.2498	0.2803	0.027
Mof_C 	C 	0.0204	0.2156	0.6975	-0.098
Mof_H 	H 	0.0348	0.215	0.6837	0.063
Mof_C 	C 	0.02101	0.23722	0.7192	-0.011
Mof_H 	H 	0.036	0.2502	0.7197	0.027
Mof_C 	C 	0.0204	0.7156	0.1975	-0.098
Mof_H 	H 	0.0348	0.715	0.1837	0.063
Mof_C 	C 	0.02101	0.73722	0.2192	-0.011
Mof_H 	H 	0.036	0.7502	0.2197	0.027
Mof_C 	C 	0.5204	0.2156	0.1975	-0.099
Mof_H 	H 	0.5348	0.215	0.1837	0.063
Mof_C 	C 	0.52101	0.23722	0.2192	-0.011
Mof_H 	H 	0.536	0.2502	0.2197	0.027
Mof_C 	C 	0.5204	0.7156	0.6975	-0.099
Mof_H 	H 	0.5348	0.715	0.6837	0.063
Mof_C 	C 	0.52101	0.73722	0.7192	-0.011
Mof_H 	H 	0.536	0.7502	0.7197	0.027
Mof_Co	Co	0.5	0.1478	-0	1.13
Mof_Co	Co	0.5	0.2084	-0	1.133
Mof_Co	Co	0.5	0.6478	0.5	1.131
Mof_Co	Co	0.5	0.7084	0.5	1.134
Mof_Co	Co	0.5	0.8522	-0	1.13
Mof_Co	Co	0.5	0.7916	-0	1.133
Mof_Co	Co	0.5	0.3522	0.5	1.131
Mof_Co	Co	0.5	0.2916	0.5	1.134
Mof_Co	Co	-6.04143e-33	0.8522	0.5	1.13
Mof_Co	Co	1.8747e-33	0.7916	0.5	1.133
Mof_Co	Co	-0	0.6478	-0	1.13
Mof_Co	Co	-7.91613e-33	0.7084	-0	1.133
Mof_Co	Co	5.54161e-34	0.5	0.1478	1.13
Mof_Co	Co	-3.17669e-33	0.5	0.2084	1.133
Mof_Co	Co	2.42886e-33	-7.91613e-33	0.6478	1.13
Mof_Co	Co	-5.26006e-33	-7.91613e-33	0.7084	1.133
Mof_Co	Co	-1.2637e-32	0.5	0.8522	1.13
Mof_Co	Co	-4.94811e-33	0.5	0.7916	1.133
Mof_Co	Co	1.32054e-33	-3.95807e-33	0.3522	1.13
Mof_Co	Co	1.09332e-33	0	0.2916	1.133
Mof_Co	Co	0.5	-7.91613e-33	0.8522	1.13
Mof_Co	Co	0.5	0	0.7916	1.133
Mof_Co	Co	0.5	0.5	0.3522	1.131
Mof_Co	Co	0.5	0.5	0.2916	1.134
Mof_Co	Co	0.1478	-3.95807e-33	0.5	1.13
Mof_Co	Co	0.2084	-3.95807e-33	0.5	1.133
Mof_Co	Co	0.6478	0	-0	1.13
Mof_Co	Co	0.7084	0	-0	1.133
Mof_Co	Co	0.6478	0.5	0.5	1.131
Mof_Co	Co	0.7084	0.5	0.5	1.134
Mof_Co	Co	0.8522	-3.95807e-33	0.5	1.13
Mof_Co	Co	0.7916	-3.95807e-33	0.5	1.133
Mof_Co	Co	0.3522	0	-0	1.13
Mof_Co	Co	0.2916	0	-0	1.133
Mof_Co	Co	0.1478	0.5	-0	1.13
Mof_Co	Co	0.2084	0.5	-0	1.133
Mof_Co	Co	0.8522	0.5	-0	1.13
Mof_Co	Co	0.7916	0.5	-0	1.133
Mof_Co	Co	0.3522	0.5	0.5	1.131
Mof_Co	Co	0.2916	0.5	0.5	1.134
Mof_Co	Co	0.5	-1.97903e-33	0.1478	1.13
Mof_Co	Co	0.5	-1.97903e-33	0.2084	1.133
Mof_Co	Co	0.5	0.5	0.6478	1.131
Mof_Co	Co	0.5	0.5	0.7084	1.134
Mof_Co	Co	1.8747e-33	0.1478	0.5	1.13
Mof_Co	Co	-6.04143e-33	0.2084	0.5	1.133
Mof_Co	Co	-0	0.3522	-0	1.13
Mof_Co	Co	-0	0.2916	-0	1.133
Mof_O 	O 	0.5429	0.1534	-0	-0.462
Mof_O 	O 	0.5425	0.202	-0	-0.467
Mof_C 	C 	0.5539	0.1778	-0	0.377
Mof_C 	C 	0.5867	0.1779	-0	-0.1
Mof_C 	C 	0.6018	0.1528	-0	-0.001
Mof_H 	H 	0.5922	0.1353	-0	0.045
Mof_C 	C 	0.6314	0.1534	-0	-0.031
Mof_C 	C 	0.6456	0.1802	-0	0.109
Mof_C 	C 	0.6314	0.2056	-0	-0.157
Mof_H 	H 	0.6412	0.2229	-0	0.084
Mof_C 	C 	0.6022	0.2046	-0	0.049
Mof_H 	H 	0.5919	0.2216	-0	0.023
Mof_O 	O 	0.5429	0.6534	0.5	-0.462
Mof_O 	O 	0.5425	0.702	0.5	-0.466
Mof_C 	C 	0.5539	0.6778	0.5	0.377
Mof_C 	C 	0.5867	0.6779	0.5	-0.1
Mof_C 	C 	0.6018	0.6528	0.5	-0.001
Mof_H 	H 	0.5922	0.6353	0.5	0.045
Mof_C 	C 	0.6314	0.6534	0.5	-0.031
Mof_C 	C 	0.6456	0.6802	0.5	0.109
Mof_C 	C 	0.6314	0.7056	0.5	-0.157
Mof_H 	H 	0.6412	0.7229	0.5	0.084
Mof_C 	C 	0.6022	0.7046	0.5	0.049
Mof_H 	H 	0.5919	0.7216	0.5	0.023
Mof_O 	O 	0.0429	0.1534	0.5	-0.462
Mof_O 	O 	0.0425	0.202	0.5	-0.466
Mof_C 	C 	0.0539	0.1778	0.5	0.377
Mof_C 	C 	0.0867	0.1779	0.5	-0.1
Mof_C 	C 	0.1018	0.1528	0.5	-0.001
Mof_H 	H 	0.0922	0.1353	0.5	0.045
Mof_C 	C 	0.1314	0.1534	0.5	-0.031
Mof_C 	C 	0.1456	0.1802	0.5	0.109
Mof_C 	C 	0.1314	0.2056	0.5	-0.157
Mof_H 	H 	0.1412	0.2229	0.5	0.084
Mof_C 	C 	0.1022	0.2046	0.5	0.05
Mof_H 	H 	0.0919	0.2216	0.5	0.023
Mof_O 	O 	0.0429	0.6534	-0	-0.462
Mof_O 	O 	0.0425	0.702	-0	-0.467
Mof_C 	C 	0.0539	0.6778	-0	0.377
Mof_C 	C 	0.0867	0.6779	-0	-0.1
Mof_C 	C 	0.1018	0.6528	-0	-0.001
Mof_H 	H 	0.0922	0.6353	-0	0.045
Mof_C 	C 	0.1314	0.6534	-0	-0.031
Mof_C 	C 	0.1456	0.6802	-0	0.109
Mof_C 	C 	0.1314	0.7056	-0	-0.157
Mof_H 	H 	0.1412	0.7229	-0	0.084
Mof_C 	C 	0.1022	0.7046	-0	0.049
Mof_H 	H 	0.0919	0.7216	-0	0.023
Mof_O 	O 	0.4571	0.8466	-0	-0.462
Mof_O 	O 	0.4575	0.798	-0	-0.467
Mof_C 	C 	0.4461	0.8222	-0	0.377
Mof_C 	C 	0.4133	0.8221	-0	-0.1
Mof_C 	C 	0.3982	0.8472	-0	-0.001
Mof_H 	H 	0.4078	0.8647	-0	0.045
Mof_C 	C 	0.3686	0.8466	-0	-0.031
Mof_C 	C 	0.3544	0.8198	-0	0.109
Mof_C 	C 	0.3686	0.7944	-0	-0.157
Mof_H 	H 	0.3588	0.7771	-0	0.084
Mof_C 	C 	0.3978	0.7954	-0	0.049
Mof_H 	H 	0.4081	0.7784	-0	0.023
Mof_O 	O 	0.4571	0.3466	0.5	-0.462
Mof_O 	O 	0.4575	0.298	0.5	-0.466
Mof_C 	C 	0.4461	0.3222	0.5	0.377
Mof_C 	C 	0.4133	0.3221	0.5	-0.1
Mof_C 	C 	0.3982	0.3472	0.5	-0.001
Mof_H 	H 	0.4078	0.3647	0.5	0.045
Mof_C 	C 	0.3686	0.3466	0.5	-0.031
Mof_C 	C 	0.3544	0.3198	0.5	0.109
Mof_C 	C 	0.3686	0.2944	0.5	-0.157
Mof_H 	H 	0.3588	0.2771	0.5	0.084
Mof_C 	C 	0.3978	0.2954	0.5	0.049
Mof_H 	H 	0.4081	0.2784	0.5	0.023
Mof_O 	O 	0.9571	0.8466	0.5	-0.46
Mof_O 	O 	0.9575	0.798	0.5	-0.465
Mof_C 	C 	0.9461	0.8222	0.5	0.377
Mof_C 	C 	0.9133	0.8221	0.5	-0.099
Mof_C 	C 	0.8982	0.8472	0.5	-0.001
Mof_H 	H 	0.9078	0.8647	0.5	0.046
Mof_C 	C 	0.8686	0.8466	0.5	-0.031
Mof_C 	C 	0.8544	0.8198	0.5	0.109
Mof_C 	C 	0.8686	0.7944	0.5	-0.157
Mof_H 	H 	0.8588	0.7771	0.5	0.084
Mof_C 	C 	0.8978	0.7954	0.5	0.049
Mof_H 	H 	0.9081	0.7784	0.5	0.024
Mof_O 	O 	0.9571	0.3466	-0	-0.461
Mof_O 	O 	0.9575	0.298	-0	-0.466
Mof_C 	C 	0.9461	0.3222	-0	0.377
Mof_C 	C 	0.9133	0.3221	-0	-0.1
Mof_C 	C 	0.8982	0.3472	-0	-0.001
Mof_H 	H 	0.9078	0.3647	-0	0.045
Mof_C 	C 	0.8686	0.3466	-0	-0.031
Mof_C 	C 	0.8544	0.3198	-0	0.109
Mof_C 	C 	0.8686	0.2944	-0	-0.157
Mof_H 	H 	0.8588	0.2771	-0	0.084
Mof_C 	C 	0.8978	0.2954	-0	0.049
Mof_H 	H 	0.9081	0.2784	-0	0.023
Mof_O 	O 	0.4571	0.1534	-0	-0.462
Mof_O 	O 	0.4575	0.202	-0	-0.467
Mof_C 	C 	0.4461	0.1778	-0	0.377
Mof_C 	C 	0.4133	0.1779	-0	-0.1
Mof_C 	C 	0.3982	0.1528	-0	-0.001
Mof_H 	H 	0.4078	0.1353	-0	0.045
Mof_C 	C 	0.3686	0.1534	-0	-0.031
Mof_C 	C 	0.3544	0.1802	-0	0.109
Mof_C 	C 	0.3686	0.2056	-0	-0.157
Mof_H 	H 	0.3588	0.2229	-0	0.084
Mof_C 	C 	0.3978	0.2046	-0	0.049
Mof_H 	H 	0.4081	0.2216	-0	0.023
Mof_O 	O 	0.4571	0.6534	0.5	-0.462
Mof_O 	O 	0.4575	0.702	0.5	-0.466
Mof_C 	C 	0.4461	0.6778	0.5	0.377
Mof_C 	C 	0.4133	0.6779	0.5	-0.1
Mof_C 	C 	0.3982	0.6528	0.5	-0.001
Mof_H 	H 	0.4078	0.6353	0.5	0.045
Mof_C 	C 	0.3686	0.6534	0.5	-0.031
Mof_C 	C 	0.3544	0.6802	0.5	0.109
Mof_C 	C 	0.3686	0.7056	0.5	-0.157
Mof_H 	H 	0.3588	0.7229	0.5	0.084
Mof_C 	C 	0.3978	0.7046	0.5	0.049
Mof_H 	H 	0.4081	0.7216	0.5	0.023
Mof_O 	O 	0.9571	0.1534	0.5	-0.461
Mof_O 	O 	0.9575	0.202	0.5	-0.465
Mof_C 	C 	0.9461	0.1778	0.5	0.377
Mof_C 	C 	0.9133	0.1779	0.5	-0.099
Mof_C 	C 	0.8982	0.1528	0.5	-0.001
Mof_H 	H 	0.9078	0.1353	0.5	0.045
Mof_C 	C 	0.8686	0.1534	0.5	-0.031
Mof_C 	C 	0.8544	0.1802	0.5	0.109
Mof_C 	C 	0.8686	0.2056	0.5	-0.157
Mof_H 	H 	0.8588	0.2229	0.5	0.084
Mof_C 	C 	0.8978	0.2046	0.5	0.049
Mof_H 	H 	0.9081	0.2216	0.5	0.024
Mof_O 	O 	0.9571	0.6534	-0	-0.461
Mof_O 	O 	0.9575	0.702	-0	-0.466
Mof_C 	C 	0.9461	0.6778	-0	0.377
Mof_C 	C 	0.9133	0.6779	-0	-0.1
Mof_C 	C 	0.8982	0.6528	-0	-0.001
Mof_H 	H 	0.9078	0.6353	-0	0.045
Mof_C 	C 	0.8686	0.6534	-0	-0.031
Mof_C 	C 	0.8544	0.6802	-0	0.109
Mof_C 	C 	0.8686	0.7056	-0	-0.157
Mof_H 	H 	0.8588	0.7229	-0	0.084
Mof_C 	C 	0.8978	0.7046	-0	0.049
Mof_H 	H 	0.9081	0.7216	-0	0.023
Mof_O 	O 	0.5429	0.8466	-0	-0.462
Mof_O 	O 	0.5425	0.798	-0	-0.467
Mof_C 	C 	0.5539	0.8222	-0	0.377
Mof_C 	C 	0.5867	0.8221	-0	-0.1
Mof_C 	C 	0.6018	0.8472	-0	-0.001
Mof_H 	H 	0.5922	0.8647	-0	0.045
Mof_C 	C 	0.6314	0.8466	-0	-0.031
Mof_C 	C 	0.6456	0.8198	-0	0.109
Mof_C 	C 	0.6314	0.7944	-0	-0.157
Mof_H 	H 	0.6412	0.7771	-0	0.084
Mof_C 	C 	0.6022	0.7954	-0	0.049
Mof_H 	H 	0.5919	0.7784	-0	0.023
Mof_O 	O 	0.5429	0.3466	0.5	-0.462
Mof_O 	O 	0.5425	0.298	0.5	-0.466
Mof_C 	C 	0.5539	0.3222	0.5	0.377
Mof_C 	C 	0.5867	0.3221	0.5	-0.1
Mof_C 	C 	0.6018	0.3472	0.5	-0.001
Mof_H 	H 	0.5922	0.3647	0.5	0.045
Mof_C 	C 	0.6314	0.3466	0.5	-0.031
Mof_C 	C 	0.6456	0.3198	0.5	0.109
Mof_C 	C 	0.6314	0.2944	0.5	-0.157
Mof_H 	H 	0.6412	0.2771	0.5	0.084
Mof_C 	C 	0.6022	0.2954	0.5	0.049
Mof_H 	H 	0.5919	0.2784	0.5	0.023
Mof_O 	O 	0.0429	0.8466	0.5	-0.462
Mof_O 	O 	0.0425	0.798	0.5	-0.466
Mof_C 	C 	0.0539	0.8222	0.5	0.377
Mof_C 	C 	0.0867	0.8221	0.5	-0.1
Mof_C 	C 	0.1018	0.8472	0.5	-0.001
Mof_H 	H 	0.0922	0.8647	0.5	0.045
Mof_C 	C 	0.1314	0.8466	0.5	-0.031
Mof_C 	C 	0.1456	0.8198	0.5	0.109
Mof_C 	C 	0.1314	0.7944	0.5	-0.157
Mof_H 	H 	0.1412	0.7771	0.5	0.084
Mof_C 	C 	0.1022	0.7954	0.5	0.05
Mof_H 	H 	0.0919	0.7784	0.5	0.023
Mof_O 	O 	0.0429	0.3466	-0	-0.462
Mof_O 	O 	0.0425	0.298	-0	-0.467
Mof_C 	C 	0.0539	0.3222	-0	0.377
Mof_C 	C 	0.0867	0.3221	-0	-0.1
Mof_C 	C 	0.1018	0.3472	-0	-0.001
Mof_H 	H 	0.0922	0.3647	-0	0.045
Mof_C 	C 	0.1314	0.3466	-0	-0.031
Mof_C 	C 	0.1456	0.3198	-0	0.109
Mof_C 	C 	0.1314	0.2944	-0	-0.157
Mof_H 	H 	0.1412	0.2771	-0	0.084
Mof_C 	C 	0.1022	0.2954	-0	0.049
Mof_H 	H 	0.0919	0.2784	-0	0.023
Mof_O 	O 	5.75158e-34	0.5429	0.1534	-0.462
Mof_O 	O 	-3.20069e-33	0.5425	0.202	-0.467
Mof_C 	C 	2.64568e-33	0.5539	0.1778	0.377
Mof_C 	C 	6.67018e-34	0.5867	0.1779	-0.1
Mof_C 	C 	2.55194e-33	0.6018	0.1528	-0.001
Mof_H 	H 	3.47584e-33	0.5922	0.1353	0.045
Mof_C 	C 	5.75158e-34	0.6314	0.1534	-0.031
Mof_C 	C 	2.65467e-33	0.6456	0.1802	0.109
Mof_C 	C 	-7.14526e-33	0.6314	0.2056	-0.157
Mof_H 	H 	6.77284e-33	0.6412	0.2229	0.084
Mof_C 	C 	4.72519e-33	0.6022	0.2046	0.049
Mof_H 	H 	8.30867e-34	0.5919	0.2216	0.023
Mof_O 	O 	-5.46627e-33	0.0429	0.6534	-0.462
Mof_O 	O 	-5.28405e-33	0.0425	0.702	-0.467
Mof_C 	C 	2.54134e-33	0.0539	0.6778	0.377
Mof_C 	C 	2.54172e-33	0.0867	0.6779	-0.1
Mof_C 	C 	2.44761e-33	0.1018	0.6528	-0.001
Mof_H 	H 	2.38199e-33	0.0922	0.6353	0.045
Mof_C 	C 	-5.46627e-33	0.1314	0.6534	-0.031
Mof_C 	C 	2.55034e-33	0.1456	0.6802	0.109
Mof_C 	C 	-5.27056e-33	0.1314	0.7056	-0.157
Mof_H 	H 	2.71044e-33	0.1412	0.7229	0.084
Mof_C 	C 	-5.27431e-33	0.1022	0.7046	0.049
Mof_H 	H 	2.70557e-33	0.0919	0.7216	0.023
Mof_O 	O 	0.5	0.5429	0.6534	-0.462
Mof_O 	O 	0.5	0.5425	0.702	-0.466
Mof_C 	C 	0.5	0.5539	0.6778	0.377
Mof_C 	C 	0.5	0.5867	0.6779	-0.1
Mof_C 	C 	0.5	0.6018	0.6528	-0.001
Mof_H 	H 	0.5	0.5922	0.6353	0.045
Mof_C 	C 	0.5	0.6314	0.6534	-0.031
Mof_C 	C 	0.5	0.6456	0.6802	0.109
Mof_C 	C 	0.5	0.6314	0.7056	-0.157
Mof_H 	H 	0.5	0.6412	0.7229	0.084
Mof_C 	C 	0.5	0.6022	0.7046	0.049
Mof_H 	H 	0.5	0.5919	0.7216	0.023
Mof_O 	O 	0.5	0.0429	0.1534	-0.462
Mof_O 	O 	0.5	0.0425	0.202	-0.466
Mof_C 	C 	0.5	0.0539	0.1778	0.377
Mof_C 	C 	0.5	0.0867	0.1779	-0.1
Mof_C 	C 	0.5	0.1018	0.1528	-0.001
Mof_H 	H 	0.5	0.0922	0.1353	0.045
Mof_C 	C 	0.5	0.1314	0.1534	-0.031
Mof_C 	C 	0.5	0.1456	0.1802	0.109
Mof_C 	C 	0.5	0.1314	0.2056	-0.157
Mof_H 	H 	0.5	0.1412	0.2229	0.084
Mof_C 	C 	0.5	0.1022	0.2046	0.05
Mof_H 	H 	0.5	0.0919	0.2216	0.023
Mof_O 	O 	1.10904e-32	0.4571	0.8466	-0.462
Mof_O 	O 	-2.07564e-32	0.4575	0.798	-0.467
Mof_C 	C 	1.09989e-32	0.4461	0.8222	0.377
Mof_C 	C 	-4.83375e-33	0.4133	0.8221	-0.1
Mof_C 	C 	3.17649e-33	0.3982	0.8472	-0.001
Mof_H 	H 	-4.67403e-33	0.4078	0.8647	0.045
Mof_C 	C 	1.10904e-32	0.3686	0.8466	-0.031
Mof_C 	C 	-4.84237e-33	0.3544	0.8198	0.109
Mof_C 	C 	2.97852e-33	0.3686	0.7944	-0.157
Mof_H 	H 	2.91366e-33	0.3588	0.7771	0.084
Mof_C 	C 	-4.93386e-33	0.3978	0.7954	0.049
Mof_H 	H 	-4.9976e-33	0.4081	0.7784	0.023
Mof_O 	O 	-6.61659e-33	0.9571	0.3466	-0.461
Mof_O 	O 	-1.47149e-32	0.9575	0.298	-0.466
Mof_C 	C 	9.12419e-33	0.9461	0.3222	0.377
Mof_C 	C 	1.20768e-33	0.9133	0.3221	-0.1
Mof_C 	C 	9.21792e-33	0.8982	0.3472	-0.001
Mof_H 	H 	-1.84229e-32	0.9078	0.3647	0.045
Mof_C 	C 	1.29954e-33	0.8686	0.3466	-0.031
Mof_C 	C 	5.15712e-33	0.8544	0.3198	0.109
Mof_C 	C 	1.10382e-33	0.8686	0.2944	-0.157
Mof_H 	H 	4.99702e-33	0.8588	0.2771	0.084
Mof_C 	C 	-1.07666e-32	0.8978	0.2954	0.049
Mof_H 	H 	-2.91423e-33	0.9081	0.2784	0.023
Mof_O 	O 	0.5	0.4571	0.3466	-0.462
Mof_O 	O 	0.5	0.4575	0.298	-0.466
Mof_C 	C 	0.5	0.4461	0.3222	0.377
Mof_C 	C 	0.5	0.4133	0.3221	-0.1
Mof_C 	C 	0.5	0.3982	0.3472	-0.001
Mof_H 	H 	0.5	0.4078	0.3647	0.045
Mof_C 	C 	0.5	0.3686	0.3466	-0.031
Mof_C 	C 	0.5	0.3544	0.3198	0.109
Mof_C 	C 	0.5	0.3686	0.2944	-0.157
Mof_H 	H 	0.5	0.3588	0.2771	0.084
Mof_C 	C 	0.5	0.3978	0.2954	0.049
Mof_H 	H 	0.5	0.4081	0.2784	0.023
Mof_O 	O 	0.5	0.9571	0.8466	-0.46
Mof_O 	O 	0.5	0.9575	0.798	-0.465
Mof_C 	C 	0.5	0.9461	0.8222	0.377
Mof_C 	C 	0.5	0.9133	0.8221	-0.099
Mof_C 	C 	0.5	0.8982	0.8472	-0.001
Mof_H 	H 	0.5	0.9078	0.8647	0.046
Mof_C 	C 	0.5	0.8686	0.8466	-0.031
Mof_C 	C 	0.5	0.8544	0.8198	0.109
Mof_C 	C 	0.5	0.8686	0.7944	-0.157
Mof_H 	H 	0.5	0.8588	0.7771	0.084
Mof_C 	C 	0.5	0.8978	0.7954	0.049
Mof_H 	H 	0.5	0.9081	0.7784	0.024
Mof_O 	O 	-3.38291e-33	0.4571	0.1534	-0.462
Mof_O 	O 	-7.15875e-33	0.4575	0.202	-0.467
Mof_C 	C 	2.64568e-33	0.4461	0.1778	0.377
Mof_C 	C 	6.67018e-34	0.4133	0.1779	-0.1
Mof_C 	C 	2.55194e-33	0.3982	0.1528	-0.001
Mof_H 	H 	3.47584e-33	0.4078	0.1353	0.045
Mof_C 	C 	4.53322e-33	0.3686	0.1534	-0.031
Mof_C 	C 	6.61274e-33	0.3544	0.1802	0.109
Mof_C 	C 	4.72894e-33	0.3686	0.2056	-0.157
Mof_H 	H 	-1.14329e-33	0.3588	0.2229	0.084
Mof_C 	C 	7.67127e-34	0.3978	0.2046	0.049
Mof_H 	H 	-3.1272e-33	0.4081	0.2216	0.023
Mof_O 	O 	-2.12985e-32	0.9571	0.6534	-0.461
Mof_O 	O 	2.63208e-33	0.9575	0.702	-0.466
Mof_C 	C 	2.54134e-33	0.9461	0.6778	0.377
Mof_C 	C 	2.62901e-32	0.9133	0.6779	-0.1
Mof_C 	C 	1.03637e-32	0.8982	0.6528	-0.001
Mof_H 	H 	1.02981e-32	0.9078	0.6353	0.045
Mof_C 	C 	-1.33824e-32	0.8686	0.6534	-0.031
Mof_C 	C 	1.83826e-32	0.8544	0.6802	0.109
Mof_C 	C 	1.05617e-32	0.8686	0.7056	-0.157
Mof_H 	H 	1.06266e-32	0.8588	0.7229	0.084
Mof_C 	C 	1.0558e-32	0.8978	0.7046	0.049
Mof_H 	H 	-5.21057e-33	0.9081	0.7216	0.023
Mof_O 	O 	0.5	0.4571	0.6534	-0.462
Mof_O 	O 	0.5	0.4575	0.702	-0.466
Mof_C 	C 	0.5	0.4461	0.6778	0.377
Mof_C 	C 	0.5	0.4133	0.6779	-0.1
Mof_C 	C 	0.5	0.3982	0.6528	-0.001
Mof_H 	H 	0.5	0.4078	0.6353	0.045
Mof_C 	C 	0.5	0.3686	0.6534	-0.031
Mof_C 	C 	0.5	0.3544	0.6802	0.109
Mof_C 	C 	0.5	0.3686	0.7056	-0.157
Mof_H 	H 	0.5	0.3588	0.7229	0.084
Mof_C 	C 	0.5	0.3978	0.7046	0.049
Mof_H 	H 	0.5	0.4081	0.7216	0.023
Mof_O 	O 	0.5	0.9571	0.1534	-0.461
Mof_O 	O 	0.5	0.9575	0.202	-0.465
Mof_C 	C 	0.5	0.9461	0.1778	0.377
Mof_C 	C 	0.5	0.9133	0.1779	-0.099
Mof_C 	C 	0.5	0.8982	0.1528	-0.001
Mof_H 	H 	0.5	0.9078	0.1353	0.045
Mof_C 	C 	0.5	0.8686	0.1534	-0.031
Mof_C 	C 	0.5	0.8544	0.1802	0.109
Mof_C 	C 	0.5	0.8686	0.2056	-0.157
Mof_H 	H 	0.5	0.8588	0.2229	0.084
Mof_C 	C 	0.5	0.8978	0.2046	0.049
Mof_H 	H 	0.5	0.9081	0.2216	0.024
Mof_O 	O 	1.10904e-32	0.5429	0.8466	-0.462
Mof_O 	O 	2.99202e-33	0.5425	0.798	-0.467
Mof_C 	C 	-4.83338e-33	0.5539	0.8222	0.377
Mof_C 	C 	3.08238e-33	0.5867	0.8221	-0.1
Mof_C 	C 	-4.73964e-33	0.6018	0.8472	-0.001
Mof_H 	H 	-4.67403e-33	0.5922	0.8647	0.045
Mof_C 	C 	1.90065e-32	0.6314	0.8466	-0.031
Mof_C 	C 	-1.27585e-32	0.6456	0.8198	0.109
Mof_C 	C 	-4.93761e-33	0.6314	0.7944	-0.157
Mof_H 	H 	-1.29186e-32	0.6412	0.7771	0.084
Mof_C 	C 	-1.285e-32	0.6022	0.7954	0.049
Mof_H 	H 	-1.29137e-32	0.5919	0.7784	0.023
Mof_O 	O 	1.29954e-33	0.0429	0.3466	-0.462
Mof_O 	O 	1.11732e-33	0.0425	0.298	-0.467
Mof_C 	C 	1.20806e-33	0.0539	0.3222	0.377
Mof_C 	C 	1.20768e-33	0.0867	0.3221	-0.1
Mof_C 	C 	1.30179e-33	0.1018	0.3472	-0.001
Mof_H 	H 	-2.59066e-33	0.0922	0.3647	0.045
Mof_C 	C 	1.29954e-33	0.1314	0.3466	-0.031
Mof_C 	C 	5.15712e-33	0.1456	0.3198	0.109
Mof_C 	C 	-2.85424e-33	0.1314	0.2944	-0.157
Mof_H 	H 	-9.40075e-34	0.1412	0.2771	0.084
Mof_C 	C 	-2.85049e-33	0.1022	0.2954	0.049
Mof_H 	H 	5.0019e-33	0.0919	0.2784	0.023
Mof_O 	O 	0.5	0.5429	0.3466	-0.462
Mof_O 	O 	0.5	0.5425	0.298	-0.466
Mof_C 	C 	0.5	0.5539	0.3222	0.377
Mof_C 	C 	0.5	0.5867	0.3221	-0.1
Mof_C 	C 	0.5	0.6018	0.3472	-0.001
Mof_H 	H 	0.5	0.5922	0.3647	0.045
Mof_C 	C 	0.5	0.6314	0.3466	-0.031
Mof_C 	C 	0.5	0.6456	0.3198	0.109
Mof_C 	C 	0.5	0.6314	0.2944	-0.157
Mof_H 	H 	0.5	0.6412	0.2771	0.084
Mof_C 	C 	0.5	0.6022	0.2954	0.049
Mof_H 	H 	0.5	0.5919	0.2784	0.023
Mof_O 	O 	0.5	0.0429	0.8466	-0.462
Mof_O 	O 	0.5	0.0425	0.798	-0.466
Mof_C 	C 	0.5	0.0539	0.8222	0.377
Mof_C 	C 	0.5	0.0867	0.8221	-0.1
Mof_C 	C 	0.5	0.1018	0.8472	-0.001
Mof_H 	H 	0.5	0.0922	0.8647	0.045
Mof_C 	C 	0.5	0.1314	0.8466	-0.031
Mof_C 	C 	0.5	0.1456	0.8198	0.109
Mof_C 	C 	0.5	0.1314	0.7944	-0.157
Mof_H 	H 	0.5	0.1412	0.7771	0.084
Mof_C 	C 	0.5	0.1022	0.7954	0.05
Mof_H 	H 	0.5	0.0919	0.7784	0.023
Mof_O 	O 	0.1534	-7.91613e-33	0.5429	-0.462
Mof_O 	O 	0.202	0	0.5425	-0.467
Mof_C 	C 	0.1778	-3.95807e-33	0.5539	0.377
Mof_C 	C 	0.1779	-7.91613e-33	0.5867	-0.1
Mof_C 	C 	0.1528	-7.91613e-33	0.6018	-0.001
Mof_H 	H 	0.1353	-7.91613e-33	0.5922	0.045
Mof_C 	C 	0.1534	0	0.6314	-0.031
Mof_C 	C 	0.1802	0	0.6456	0.109
Mof_C 	C 	0.2056	0	0.6314	-0.157
Mof_H 	H 	0.2229	0	0.6412	0.084
Mof_C 	C 	0.2046	-7.91613e-33	0.6022	0.049
Mof_H 	H 	0.2216	0	0.5919	0.023
Mof_O 	O 	0.1534	0.5	0.0429	-0.462
Mof_O 	O 	0.202	0.5	0.0425	-0.466
Mof_C 	C 	0.1778	0.5	0.0539	0.377
Mof_C 	C 	0.1779	0.5	0.0867	-0.1
Mof_C 	C 	0.1528	0.5	0.1018	-0.001
Mof_H 	H 	0.1353	0.5	0.0922	0.045
Mof_C 	C 	0.1534	0.5	0.1314	-0.031
Mof_C 	C 	0.1802	0.5	0.1456	0.109
Mof_C 	C 	0.2056	0.5	0.1314	-0.157
Mof_H 	H 	0.2229	0.5	0.1412	0.084
Mof_C 	C 	0.2046	0.5	0.1022	0.05
Mof_H 	H 	0.2216	0.5	0.0919	0.023
Mof_O 	O 	0.6534	-4.94758e-34	0.0429	-0.462
Mof_O 	O 	0.702	0	0.0425	-0.467
Mof_C 	C 	0.6778	0	0.0539	0.377
Mof_C 	C 	0.6779	0	0.0867	-0.1
Mof_C 	C 	0.6528	-9.89517e-34	0.1018	-0.001
Mof_H 	H 	0.6353	0	0.0922	0.045
Mof_C 	C 	0.6534	-9.89517e-34	0.1314	-0.031
Mof_C 	C 	0.6802	0	0.1456	0.109
Mof_C 	C 	0.7056	-9.89517e-34	0.1314	-0.157
Mof_H 	H 	0.7229	-1.97903e-33	0.1412	0.084
Mof_C 	C 	0.7046	0	0.1022	0.049
Mof_H 	H 	0.7216	-9.89517e-34	0.0919	0.023
Mof_O 	O 	0.6534	0.5	0.5429	-0.462
Mof_O 	O 	0.702	0.5	0.5425	-0.466
Mof_C 	C 	0.6778	0.5	0.5539	0.377
Mof_C 	C 	0.6779	0.5	0.5867	-0.1
Mof_C 	C 	0.6528	0.5	0.6018	-0.001
Mof_H 	H 	0.6353	0.5	0.5922	0.045
Mof_C 	C 	0.6534	0.5	0.6314	-0.031
Mof_C 	C 	0.6802	0.5	0.6456	0.109
Mof_C 	C 	0.7056	0.5	0.6314	-0.157
Mof_H 	H 	0.7229	0.5	0.6412	0.084
Mof_C 	C 	0.7046	0.5	0.6022	0.049
Mof_H 	H 	0.7216	0.5	0.5919	0.023
Mof_O 	O 	0.8466	-3.95807e-33	0.4571	-0.462
Mof_O 	O 	0.798	-3.95807e-33	0.4575	-0.467
Mof_C 	C 	0.8222	-3.95807e-33	0.4461	0.377
Mof_C 	C 	0.8221	-3.95807e-33	0.4133	-0.1
Mof_C 	C 	0.8472	0	0.3982	-0.001
Mof_H 	H 	0.8647	0	0.4078	0.045
Mof_C 	C 	0.8466	0	0.3686	-0.031
Mof_C 	C 	0.8198	0	0.3544	0.109
Mof_C 	C 	0.7944	0	0.3686	-0.157
Mof_H 	H 	0.7771	-3.95807e-33	0.3588	0.084
Mof_C 	C 	0.7954	-7.91613e-33	0.3978	0.049
Mof_H 	H 	0.7784	-3.95807e-33	0.4081	0.023
Mof_O 	O 	0.8466	0.5	0.9571	-0.46
Mof_O 	O 	0.798	0.5	0.9575	-0.465
Mof_C 	C 	0.8222	0.5	0.9461	0.377
Mof_C 	C 	0.8221	0.5	0.9133	-0.099
Mof_C 	C 	0.8472	0.5	0.8982	-0.001
Mof_H 	H 	0.8647	0.5	0.9078	0.046
Mof_C 	C 	0.8466	0.5	0.8686	-0.031
Mof_C 	C 	0.8198	0.5	0.8544	0.109
Mof_C 	C 	0.7944	0.5	0.8686	-0.157
Mof_H 	H 	0.7771	0.5	0.8588	0.084
Mof_C 	C 	0.7954	0.5	0.8978	0.049
Mof_H 	H 	0.7784	0.5	0.9081	0.024
Mof_O 	O 	0.3466	-7.91613e-33	0.9571	-0.461
Mof_O 	O 	0.298	-7.91613e-33	0.9575	-0.466
Mof_C 	C 	0.3222	-7.91613e-33	0.9461	0.377
Mof_C 	C 	0.3221	-7.91613e-33	0.9133	-0.1
Mof_C 	C 	0.3472	-7.91613e-33	0.8982	-0.001
Mof_H 	H 	0.3647	-1.58323e-32	0.9078	0.045
Mof_C 	C 	0.3466	-7.91613e-33	0.8686	-0.031
Mof_C 	C 	0.3198	0	0.8544	0.109
Mof_C 	C 	0.2944	-7.91613e-33	0.8686	-0.157
Mof_H 	H 	0.2771	-7.91613e-33	0.8588	0.084
Mof_C 	C 	0.2954	-7.91613e-33	0.8978	0.049
Mof_H 	H 	0.2784	-1.58323e-32	0.9081	0.023
Mof_O 	O 	0.3466	0.5	0.4571	-0.462
Mof_O 	O 	0.298	0.5	0.4575	-0.466
Mof_C 	C 	0.3222	0.5	0.4461	0.377
Mof_C 	C 	0.3221	0.5	0.4133	-0.1
Mof_C 	C 	0.3472	0.5	0.3982	-0.001
Mof_H 	H 	0.3647	0.5	0.4078	0.045
Mof_C 	C 	0.3466	0.5	0.3686	-0.031
Mof_C 	C 	0.3198	0.5	0.3544	0.109
Mof_C 	C 	0.2944	0.5	0.3686	-0.157
Mof_H 	H 	0.2771	0.5	0.3588	0.084
Mof_C 	C 	0.2954	0.5	0.3978	0.049
Mof_H 	H 	0.2784	0.5	0.4081	0.023
Mof_O 	O 	0.1534	-3.95807e-33	0.4571	-0.462
Mof_O 	O 	0.202	-3.95807e-33	0.4575	-0.467
Mof_C 	C 	0.1778	-3.95807e-33	0.4461	0.377
Mof_C 	C 	0.1779	-3.95807e-33	0.4133	-0.1
Mof_C 	C 	0.1528	0	0.3982	-0.001
Mof_H 	H 	0.1353	0	0.4078	0.045
Mof_C 	C 	0.1534	0	0.3686	-0.031
Mof_C 	C 	0.1802	0	0.3544	0.109
Mof_C 	C 	0.2056	0	0.3686	-0.157
Mof_H 	H 	0.2229	-3.95807e-33	0.3588	0.084
Mof_C 	C 	0.2046	-7.91613e-33	0.3978	0.049
Mof_H 	H 	0.2216	-3.95807e-33	0.4081	0.023
Mof_O 	O 	0.1534	0.5	0.9571	-0.461
Mof_O 	O 	0.202	0.5	0.9575	-0.465
Mof_C 	C 	0.1778	0.5	0.9461	0.377
Mof_C 	C 	0.1779	0.5	0.9133	-0.099
Mof_C 	C 	0.1528	0.5	0.8982	-0.001
Mof_H 	H 	0.1353	0.5	0.9078	0.045
Mof_C 	C 	0.1534	0.5	0.8686	-0.031
Mof_C 	C 	0.1802	0.5	0.8544	0.109
Mof_C 	C 	0.2056	0.5	0.8686	-0.157
Mof_H 	H 	0.2229	0.5	0.8588	0.084
Mof_C 	C 	0.2046	0.5	0.8978	0.049
Mof_H 	H 	0.2216	0.5	0.9081	0.024
Mof_O 	O 	0.6534	-7.91613e-33	0.9571	-0.461
Mof_O 	O 	0.702	-7.91613e-33	0.9575	-0.466
Mof_C 	C 	0.6778	-7.91613e-33	0.9461	0.377
Mof_C 	C 	0.6779	-7.91613e-33	0.9133	-0.1
Mof_C 	C 	0.6528	-7.91613e-33	0.8982	-0.001
Mof_H 	H 	0.6353	-1.58323e-32	0.9078	0.045
Mof_C 	C 	0.6534	-7.91613e-33	0.8686	-0.031
Mof_C 	C 	0.6802	0	0.8544	0.109
Mof_C 	C 	0.7056	-7.91613e-33	0.8686	-0.157
Mof_H 	H 	0.7229	-7.91613e-33	0.8588	0.084
Mof_C 	C 	0.7046	-7.91613e-33	0.8978	0.049
Mof_H 	H 	0.7216	-1.58323e-32	0.9081	0.023
Mof_O 	O 	0.6534	0.5	0.4571	-0.462
Mof_O 	O 	0.702	0.5	0.4575	-0.466
Mof_C 	C 	0.6778	0.5	0.4461	0.377
Mof_C 	C 	0.6779	0.5	0.4133	-0.1
Mof_C 	C 	0.6528	0.5	0.3982	-0.001
Mof_H 	H 	0.6353	0.5	0.4078	0.045
Mof_C 	C 	0.6534	0.5	0.3686	-0.031
Mof_C 	C 	0.6802	0.5	0.3544	0.109
Mof_C 	C 	0.7056	0.5	0.3686	-0.157
Mof_H 	H 	0.7229	0.5	0.3588	0.084
Mof_C 	C 	0.7046	0.5	0.3978	0.049
Mof_H 	H 	0.7216	0.5	0.4081	0.023
Mof_O 	O 	0.8466	-7.91613e-33	0.5429	-0.462
Mof_O 	O 	0.798	0	0.5425	-0.467
Mof_C 	C 	0.8222	-3.95807e-33	0.5539	0.377
Mof_C 	C 	0.8221	-7.91613e-33	0.5867	-0.1
Mof_C 	C 	0.8472	-7.91613e-33	0.6018	-0.001
Mof_H 	H 	0.8647	-7.91613e-33	0.5922	0.045
Mof_C 	C 	0.8466	0	0.6314	-0.031
Mof_C 	C 	0.8198	0	0.6456	0.109
Mof_C 	C 	0.7944	0	0.6314	-0.157
Mof_H 	H 	0.7771	0	0.6412	0.084
Mof_C 	C 	0.7954	-7.91613e-33	0.6022	0.049
Mof_H 	H 	0.7784	0	0.5919	0.023
Mof_O 	O 	0.8466	0.5	0.0429	-0.462
Mof_O 	O 	0.798	0.5	0.0425	-0.466
Mof_C 	C 	0.8222	0.5	0.0539	0.377
Mof_C 	C 	0.8221	0.5	0.0867	-0.1
Mof_C 	C 	0.8472	0.5	0.1018	-0.001
Mof_H 	H 	0.8647	0.5	0.0922	0.045
Mof_C 	C 	0.8466	0.5	0.1314	-0.031
Mof_C 	C 	0.8198	0.5	0.1456	0.109
Mof_C 	C 	0.7944	0.5	0.1314	-0.157
Mof_H 	H 	0.7771	0.5	0.1412	0.084
Mof_C 	C 	0.7954	0.5	0.1022	0.05
Mof_H 	H 	0.7784	0.5	0.0919	0.023
Mof_O 	O 	0.3466	-4.94758e-34	0.0429	-0.462
Mof_O 	O 	0.298	0	0.0425	-0.467
Mof_C 	C 	0.3222	0	0.0539	0.377
Mof_C 	C 	0.3221	0	0.0867	-0.1
Mof_C 	C 	0.3472	-9.89517e-34	0.1018	-0.001
Mof_H 	H 	0.3647	0	0.0922	0.045
Mof_C 	C 	0.3466	-9.89517e-34	0.1314	-0.031
Mof_C 	C 	0.3198	0	0.1456	0.109
Mof_C 	C 	0.2944	-9.89517e-34	0.1314	-0.157
Mof_H 	H 	0.2771	-1.97903e-33	0.1412	0.084
Mof_C 	C 	0.2954	0	0.1022	0.049
Mof_H 	H 	0.2784	-9.89517e-34	0.0919	0.023
Mof_O 	O 	0.3466	0.5	0.5429	-0.462
Mof_O 	O 	0.298	0.5	0.5425	-0.466
Mof_C 	C 	0.3222	0.5	0.5539	0.377
Mof_C 	C 	0.3221	0.5	0.5867	-0.1
Mof_C 	C 	0.3472	0.5	0.6018	-0.001
Mof_H 	H 	0.3647	0.5	0.5922	0.045
Mof_C 	C 	0.3466	0.5	0.6314	-0.031
Mof_C 	C 	0.3198	0.5	0.6456	0.109
Mof_C 	C 	0.2944	0.5	0.6314	-0.157
Mof_H 	H 	0.2771	0.5	0.6412	0.084
Mof_C 	C 	0.2954	0.5	0.6022	0.049
Mof_H 	H 	0.2784	0.5	0.5919	0.023
Mof_O 	O 	0.1534	0.5429	-0	-0.462
Mof_O 	O 	0.202	0.5425	-0	-0.467
Mof_C 	C 	0.1778	0.5539	-0	0.377
Mof_C 	C 	0.1779	0.5867	-0	-0.1
Mof_C 	C 	0.1528	0.6018	-0	-0.001
Mof_H 	H 	0.1353	0.5922	-0	0.045
Mof_C 	C 	0.1534	0.6314	-0	-0.031
Mof_C 	C 	0.1802	0.6456	-0	0.109
Mof_C 	C 	0.2056	0.6314	-0	-0.157
Mof_H 	H 	0.2229	0.6412	-0	0.084
Mof_C 	C 	0.2046	0.6022	-0	0.049
Mof_H 	H 	0.2216	0.5919	-0	0.023
Mof_O 	O 	0.1534	0.0429	0.5	-0.462
Mof_O 	O 	0.202	0.0425	0.5	-0.466
Mof_C 	C 	0.1778	0.0539	0.5	0.377
Mof_C 	C 	0.1779	0.0867	0.5	-0.1
Mof_C 	C 	0.1528	0.1018	0.5	-0.001
Mof_H 	H 	0.1353	0.0922	0.5	0.045
Mof_C 	C 	0.1534	0.1314	0.5	-0.031
Mof_C 	C 	0.1802	0.1456	0.5	0.109
Mof_C 	C 	0.2056	0.1314	0.5	-0.157
Mof_H 	H 	0.2229	0.1412	0.5	0.084
Mof_C 	C 	0.2046	0.1022	0.5	0.05
Mof_H 	H 	0.2216	0.0919	0.5	0.023
Mof_O 	O 	0.6534	0.5429	0.5	-0.462
Mof_O 	O 	0.702	0.5425	0.5	-0.466
Mof_C 	C 	0.6778	0.5539	0.5	0.377
Mof_C 	C 	0.6779	0.5867	0.5	-0.1
Mof_C 	C 	0.6528	0.6018	0.5	-0.001
Mof_H 	H 	0.6353	0.5922	0.5	0.045
Mof_C 	C 	0.6534	0.6314	0.5	-0.031
Mof_C 	C 	0.6802	0.6456	0.5	0.109
Mof_C 	C 	0.7056	0.6314	0.5	-0.157
Mof_H 	H 	0.7229	0.6412	0.5	0.084
Mof_C 	C 	0.7046	0.6022	0.5	0.049
Mof_H 	H 	0.7216	0.5919	0.5	0.023
Mof_O 	O 	0.6534	0.0429	-0	-0.462
Mof_O 	O 	0.702	0.0425	-0	-0.467
Mof_C 	C 	0.6778	0.0539	-0	0.377
Mof_C 	C 	0.6779	0.0867	-0	-0.1
Mof_C 	C 	0.6528	0.1018	-0	-0.001
Mof_H 	H 	0.6353	0.0922	-0	0.045
Mof_C 	C 	0.6534	0.1314	-0	-0.031
Mof_C 	C 	0.6802	0.1456	-0	0.109
Mof_C 	C 	0.7056	0.1314	-0	-0.157
Mof_H 	H 	0.7229	0.1412	-0	0.084
Mof_C 	C 	0.7046	0.1022	-0	0.049
Mof_H 	H 	0.7216	0.0919	-0	0.023
Mof_O 	O 	0.8466	0.4571	-0	-0.462
Mof_O 	O 	0.798	0.4575	-0	-0.467
Mof_C 	C 	0.8222	0.4461	-0	0.377
Mof_C 	C 	0.8221	0.4133	-0	-0.1
Mof_C 	C 	0.8472	0.3982	-0	-0.001
Mof_H 	H 	0.8647	0.4078	-0	0.045
Mof_C 	C 	0.8466	0.3686	-0	-0.031
Mof_C 	C 	0.8198	0.3544	-0	0.109
Mof_C 	C 	0.7944	0.3686	-0	-0.157
Mof_H 	H 	0.7771	0.3588	-0	0.084
Mof_C 	C 	0.7954	0.3978	-0	0.049
Mof_H 	H 	0.7784	0.4081	-0	0.023
Mof_O 	O 	0.8466	0.9571	0.5	-0.46
Mof_O 	O 	0.798	0.9575	0.5	-0.465
Mof_C 	C 	0.8222	0.9461	0.5	0.377
Mof_C 	C 	0.8221	0.9133	0.5	-0.099
Mof_C 	C 	0.8472	0.8982	0.5	-0.001
Mof_H 	H 	0.8647	0.9078	0.5	0.046
Mof_C 	C 	0.8466	0.8686	0.5	-0.031
Mof_C 	C 	0.8198	0.8544	0.5	0.109
Mof_C 	C 	0.7944	0.8686	0.5	-0.157
Mof_H 	H 	0.7771	0.8588	0.5	0.084
Mof_C 	C 	0.7954	0.8978	0.5	0.049
Mof_H 	H 	0.7784	0.9081	0.5	0.024
Mof_O 	O 	0.3466	0.4571	0.5	-0.462
Mof_O 	O 	0.298	0.4575	0.5	-0.466
Mof_C 	C 	0.3222	0.4461	0.5	0.377
Mof_C 	C 	0.3221	0.4133	0.5	-0.1
Mof_C 	C 	0.3472	0.3982	0.5	-0.001
Mof_H 	H 	0.3647	0.4078	0.5	0.045
Mof_C 	C 	0.3466	0.3686	0.5	-0.031
Mof_C 	C 	0.3198	0.3544	0.5	0.109
Mof_C 	C 	0.2944	0.3686	0.5	-0.157
Mof_H 	H 	0.2771	0.3588	0.5	0.084
Mof_C 	C 	0.2954	0.3978	0.5	0.049
Mof_H 	H 	0.2784	0.4081	0.5	0.023
Mof_O 	O 	0.3466	0.9571	-0	-0.461
Mof_O 	O 	0.298	0.9575	-0	-0.466
Mof_C 	C 	0.3222	0.9461	-0	0.377
Mof_C 	C 	0.3221	0.9133	-0	-0.1
Mof_C 	C 	0.3472	0.8982	-0	-0.001
Mof_H 	H 	0.3647	0.9078	-0	0.045
Mof_C 	C 	0.3466	0.8686	-0	-0.031
Mof_C 	C 	0.3198	0.8544	-0	0.109
Mof_C 	C 	0.2944	0.8686	-0	-0.157
Mof_H 	H 	0.2771	0.8588	-0	0.084
Mof_C 	C 	0.2954	0.8978	-0	0.049
Mof_H 	H 	0.2784	0.9081	-0	0.023
Mof_O 	O 	0.1534	0.4571	-0	-0.462
Mof_O 	O 	0.202	0.4575	-0	-0.467
Mof_C 	C 	0.1778	0.4461	-0	0.377
Mof_C 	C 	0.1779	0.4133	-0	-0.1
Mof_C 	C 	0.1528	0.3982	-0	-0.001
Mof_H 	H 	0.1353	0.4078	-0	0.045
Mof_C 	C 	0.1534	0.3686	-0	-0.031
Mof_C 	C 	0.1802	0.3544	-0	0.109
Mof_C 	C 	0.2056	0.3686	-0	-0.157
Mof_H 	H 	0.2229	0.3588	-0	0.084
Mof_C 	C 	0.2046	0.3978	-0	0.049
Mof_H 	H 	0.2216	0.4081	-0	0.023
Mof_O 	O 	0.1534	0.9571	0.5	-0.461
Mof_O 	O 	0.202	0.9575	0.5	-0.465
Mof_C 	C 	0.1778	0.9461	0.5	0.377
Mof_C 	C 	0.1779	0.9133	0.5	-0.099
Mof_C 	C 	0.1528	0.8982	0.5	-0.001
Mof_H 	H 	0.1353	0.9078	0.5	0.045
Mof_C 	C 	0.1534	0.8686	0.5	-0.031
Mof_C 	C 	0.1802	0.8544	0.5	0.109
Mof_C 	C 	0.2056	0.8686	0.5	-0.157
Mof_H 	H 	0.2229	0.8588	0.5	0.084
Mof_C 	C 	0.2046	0.8978	0.5	0.049
Mof_H 	H 	0.2216	0.9081	0.5	0.024
Mof_O 	O 	0.6534	0.4571	0.5	-0.462
Mof_O 	O 	0.702	0.4575	0.5	-0.466
Mof_C 	C 	0.6778	0.4461	0.5	0.377
Mof_C 	C 	0.6779	0.4133	0.5	-0.1
Mof_C 	C 	0.6528	0.3982	0.5	-0.001
Mof_H 	H 	0.6353	0.4078	0.5	0.045
Mof_C 	C 	0.6534	0.3686	0.5	-0.031
Mof_C 	C 	0.6802	0.3544	0.5	0.109
Mof_C 	C 	0.7056	0.3686	0.5	-0.157
Mof_H 	H 	0.7229	0.3588	0.5	0.084
Mof_C 	C 	0.7046	0.3978	0.5	0.049
Mof_H 	H 	0.7216	0.4081	0.5	0.023
Mof_O 	O 	0.6534	0.9571	-0	-0.461
Mof_O 	O 	0.702	0.9575	-0	-0.466
Mof_C 	C 	0.6778	0.9461	-0	0.377
Mof_C 	C 	0.6779	0.9133	-0	-0.1
Mof_C 	C 	0.6528	0.8982	-0	-0.001
Mof_H 	H 	0.6353	0.9078	-0	0.045
Mof_C 	C 	0.6534	0.8686	-0	-0.031
Mof_C 	C 	0.6802	0.8544	-0	0.109
Mof_C 	C 	0.7056	0.8686	-0	-0.157
Mof_H 	H 	0.7229	0.8588	-0	0.084
Mof_C 	C 	0.7046	0.8978	-0	0.049
Mof_H 	H 	0.7216	0.9081	-0	0.023
Mof_O 	O 	0.8466	0.5429	-0	-0.462
Mof_O 	O 	0.798	0.5425	-0	-0.467
Mof_C 	C 	0.8222	0.5539	-0	0.377
Mof_C 	C 	0.8221	0.5867	-0	-0.1
Mof_C 	C 	0.8472	0.6018	-0	-0.001
Mof_H 	H 	0.8647	0.5922	-0	0.045
Mof_C 	C 	0.8466	0.6314	-0	-0.031
Mof_C 	C 	0.8198	0.6456	-0	0.109
Mof_C 	C 	0.7944	0.6314	-0	-0.157
Mof_H 	H 	0.7771	0.6412	-0	0.084
Mof_C 	C 	0.7954	0.6022	-0	0.049
Mof_H 	H 	0.7784	0.5919	-0	0.023
Mof_O 	O 	0.8466	0.0429	0.5	-0.462
Mof_O 	O 	0.798	0.0425	0.5	-0.466
Mof_C 	C 	0.8222	0.0539	0.5	0.377
Mof_C 	C 	0.8221	0.0867	0.5	-0.1
Mof_C 	C 	0.8472	0.1018	0.5	-0.001
Mof_H 	H 	0.8647	0.0922	0.5	0.045
Mof_C 	C 	0.8466	0.1314	0.5	-0.031
Mof_C 	C 	0.8198	0.1456	0.5	0.109
Mof_C 	C 	0.7944	0.1314	0.5	-0.157
Mof_H 	H 	0.7771	0.1412	0.5	0.084
Mof_C 	C 	0.7954	0.1022	0.5	0.05
Mof_H 	H 	0.7784	0.0919	0.5	0.023
Mof_O 	O 	0.3466	0.5429	0.5	-0.462
Mof_O 	O 	0.298	0.5425	0.5	-0.466
Mof_C 	C 	0.3222	0.5539	0.5	0.377
Mof_C 	C 	0.3221	0.5867	0.5	-0.1
Mof_C 	C 	0.3472	0.6018	0.5	-0.001
Mof_H 	H 	0.3647	0.5922	0.5	0.045
Mof_C 	C 	0.3466	0.6314	0.5	-0.031
Mof_C 	C 	0.3198	0.6456	0.5	0.109
Mof_C 	C 	0.2944	0.6314	0.5	-0.157
Mof_H 	H 	0.2771	0.6412	0.5	0.084
Mof_C 	C 	0.2954	0.6022	0.5	0.049
Mof_H 	H 	0.2784	0.5919	0.5	0.023
Mof_O 	O 	0.3466	0.0429	-0	-0.462
Mof_O 	O 	0.298	0.0425	-0	-0.467
Mof_C 	C 	0.3222	0.0539	-0	0.377
Mof_C 	C 	0.3221	0.0867	-0	-0.1
Mof_C 	C 	0.3472	0.1018	-0	-0.001
Mof_H 	H 	0.3647	0.0922	-0	0.045
Mof_C 	C 	0.3466	0.1314	-0	-0.031
Mof_C 	C 	0.3198	0.1456	-0	0.109
Mof_C 	C 	0.2944	0.1314	-0	-0.157
Mof_H 	H 	0.2771	0.1412	-0	0.084
Mof_C 	C 	0.2954	0.1022	-0	0.049
Mof_H 	H 	0.2784	0.0919	-0	0.023
Mof_O 	O 	0.5429	0	0.8466	-0.462
Mof_O 	O 	0.5425	-7.91613e-33	0.798	-0.467
Mof_C 	C 	0.5539	-7.91613e-33	0.8222	0.377
Mof_C 	C 	0.5867	-7.91613e-33	0.8221	-0.1
Mof_C 	C 	0.6018	-1.58323e-32	0.8472	-0.001
Mof_H 	H 	0.5922	-7.91613e-33	0.8647	0.045
Mof_C 	C 	0.6314	0	0.8466	-0.031
Mof_C 	C 	0.6456	-7.91613e-33	0.8198	0.109
Mof_C 	C 	0.6314	0	0.7944	-0.157
Mof_H 	H 	0.6412	0	0.7771	0.084
Mof_C 	C 	0.6022	-7.91613e-33	0.7954	0.049
Mof_H 	H 	0.5919	-1.58323e-32	0.7784	0.023
Mof_O 	O 	0.5429	0.5	0.3466	-0.462
Mof_O 	O 	0.5425	0.5	0.298	-0.466
Mof_C 	C 	0.5539	0.5	0.3222	0.377
Mof_C 	C 	0.5867	0.5	0.3221	-0.1
Mof_C 	C 	0.6018	0.5	0.3472	-0.001
Mof_H 	H 	0.5922	0.5	0.3647	0.045
Mof_C 	C 	0.6314	0.5	0.3466	-0.031
Mof_C 	C 	0.6456	0.5	0.3198	0.109
Mof_C 	C 	0.6314	0.5	0.2944	-0.157
Mof_H 	H 	0.6412	0.5	0.2771	0.084
Mof_C 	C 	0.6022	0.5	0.2954	0.049
Mof_H 	H 	0.5919	0.5	0.2784	0.023
Mof_O 	O 	0.0429	-3.95807e-33	0.3466	-0.462
Mof_O 	O 	0.0425	0	0.298	-0.467
Mof_C 	C 	0.0539	-3.95807e-33	0.3222	0.377
Mof_C 	C 	0.0867	-3.95807e-33	0.3221	-0.1
Mof_C 	C 	0.1018	-3.95807e-33	0.3472	-0.001
Mof_H 	H 	0.0922	0	0.3647	0.045
Mof_C 	C 	0.1314	-3.95807e-33	0.3466	-0.031
Mof_C 	C 	0.1456	0	0.3198	0.109
Mof_C 	C 	0.1314	-3.95807e-33	0.2944	-0.157
Mof_H 	H 	0.1412	-3.95807e-33	0.2771	0.084
Mof_C 	C 	0.1022	-3.95807e-33	0.2954	0.049
Mof_H 	H 	0.0919	-1.97903e-33	0.2784	0.023
Mof_O 	O 	0.0429	0.5	0.8466	-0.462
Mof_O 	O 	0.0425	0.5	0.798	-0.466
Mof_C 	C 	0.0539	0.5	0.8222	0.377
Mof_C 	C 	0.0867	0.5	0.8221	-0.1
Mof_C 	C 	0.1018	0.5	0.8472	-0.001
Mof_H 	H 	0.0922	0.5	0.8647	0.045
Mof_C 	C 	0.1314	0.5	0.8466	-0.031
Mof_C 	C 	0.1456	0.5	0.8198	0.109
Mof_C 	C 	0.1314	0.5	0.7944	-0.157
Mof_H 	H 	0.1412	0.5	0.7771	0.084
Mof_C 	C 	0.1022	0.5	0.7954	0.05
Mof_H 	H 	0.0919	0.5	0.7784	0.023
Mof_O 	O 	0.4571	0	0.1534	-0.462
Mof_O 	O 	0.4575	-3.95807e-33	0.202	-0.467
Mof_C 	C 	0.4461	0	0.1778	0.377
Mof_C 	C 	0.4133	-1.97903e-33	0.1779	-0.1
Mof_C 	C 	0.3982	0	0.1528	-0.001
Mof_H 	H 	0.4078	-9.89517e-34	0.1353	0.045
Mof_C 	C 	0.3686	0	0.1534	-0.031
Mof_C 	C 	0.3544	-1.97903e-33	0.1802	0.109
Mof_C 	C 	0.3686	-1.97903e-33	0.2056	-0.157
Mof_H 	H 	0.3588	0	0.2229	0.084
Mof_C 	C 	0.3978	0	0.2046	0.049
Mof_H 	H 	0.4081	-1.97903e-33	0.2216	0.023
Mof_O 	O 	0.4571	0.5	0.6534	-0.462
Mof_O 	O 	0.4575	0.5	0.702	-0.466
Mof_C 	C 	0.4461	0.5	0.6778	0.377
Mof_C 	C 	0.4133	0.5	0.6779	-0.1
Mof_C 	C 	0.3982	0.5	0.6528	-0.001
Mof_H 	H 	0.4078	0.5	0.6353	0.045
Mof_C 	C 	0.3686	0.5	0.6534	-0.031
Mof_C 	C 	0.3544	0.5	0.6802	0.109
Mof_C 	C 	0.3686	0.5	0.7056	-0.157
Mof_H 	H 	0.3588	0.5	0.7229	0.084
Mof_C 	C 	0.3978	0.5	0.7046	0.049
Mof_H 	H 	0.4081	0.5	0.7216	0.023
Mof_O 	O 	0.9571	-7.91613e-33	0.6534	-0.461
Mof_O 	O 	0.9575	-1.58323e-32	0.702	-0.466
Mof_C 	C 	0.9461	-7.91613e-33	0.6778	0.377
Mof_C 	C 	0.9133	0	0.6779	-0.1
Mof_C 	C 	0.8982	-7.91613e-33	0.6528	-0.001
Mof_H 	H 	0.9078	-7.91613e-33	0.6353	0.045
Mof_C 	C 	0.8686	-7.91613e-33	0.6534	-0.031
Mof_C 	C 	0.8544	-7.91613e-33	0.6802	0.109
Mof_C 	C 	0.8686	-7.91613e-33	0.7056	-0.157
Mof_H 	H 	0.8588	0	0.7229	0.084
Mof_C 	C 	0.8978	-1.58323e-32	0.7046	0.049
Mof_H 	H 	0.9081	-7.91613e-33	0.7216	0.023
Mof_O 	O 	0.9571	0.5	0.1534	-0.461
Mof_O 	O 	0.9575	0.5	0.202	-0.465
Mof_C 	C 	0.9461	0.5	0.1778	0.377
Mof_C 	C 	0.9133	0.5	0.1779	-0.099
Mof_C 	C 	0.8982	0.5	0.1528	-0.001
Mof_H 	H 	0.9078	0.5	0.1353	0.045
Mof_C 	C 	0.8686	0.5	0.1534	-0.031
Mof_C 	C 	0.8544	0.5	0.1802	0.109
Mof_C 	C 	0.8686	0.5	0.2056	-0.157
Mof_H 	H 	0.8588	0.5	0.2229	0.084
Mof_C 	C 	0.8978	0.5	0.2046	0.049
Mof_H 	H 	0.9081	0.5	0.2216	0.024
Mof_O 	O 	0.4571	0	0.8466	-0.462
Mof_O 	O 	0.4575	-7.91613e-33	0.798	-0.467
Mof_C 	C 	0.4461	-7.91613e-33	0.8222	0.377
Mof_C 	C 	0.4133	-7.91613e-33	0.8221	-0.1
Mof_C 	C 	0.3982	-1.58323e-32	0.8472	-0.001
Mof_H 	H 	0.4078	-7.91613e-33	0.8647	0.045
Mof_C 	C 	0.3686	0	0.8466	-0.031
Mof_C 	C 	0.3544	-7.91613e-33	0.8198	0.109
Mof_C 	C 	0.3686	0	0.7944	-0.157
Mof_H 	H 	0.3588	0	0.7771	0.084
Mof_C 	C 	0.3978	-7.91613e-33	0.7954	0.049
Mof_H 	H 	0.4081	-1.58323e-32	0.7784	0.023
Mof_O 	O 	0.4571	0.5	0.3466	-0.462
Mof_O 	O 	0.4575	0.5	0.298	-0.466
Mof_C 	C 	0.4461	0.5	0.3222	0.377
Mof_C 	C 	0.4133	0.5	0.3221	-0.1
Mof_C 	C 	0.3982	0.5	0.3472	-0.001
Mof_H 	H 	0.4078	0.5	0.3647	0.045
Mof_C 	C 	0.3686	0.5	0.3466	-0.031
Mof_C 	C 	0.3544	0.5	0.3198	0.109
Mof_C 	C 	0.3686	0.5	0.2944	-0.157
Mof_H 	H 	0.3588	0.5	0.2771	0.084
Mof_C 	C 	0.3978	0.5	0.2954	0.049
Mof_H 	H 	0.4081	0.5	0.2784	0.023
Mof_O 	O 	0.9571	-3.95807e-33	0.3466	-0.461
Mof_O 	O 	0.9575	0	0.298	-0.466
Mof_C 	C 	0.9461	-3.95807e-33	0.3222	0.377
Mof_C 	C 	0.9133	-3.95807e-33	0.3221	-0.1
Mof_C 	C 	0.8982	-3.95807e-33	0.3472	-0.001
Mof_H 	H 	0.9078	0	0.3647	0.045
Mof_C 	C 	0.8686	-3.95807e-33	0.3466	-0.031
Mof_C 	C 	0.8544	0	0.3198	0.109
Mof_C 	C 	0.8686	-3.95807e-33	0.2944	-0.157
Mof_H 	H 	0.8588	-3.95807e-33	0.2771	0.084
Mof_C 	C 	0.8978	-3.95807e-33	0.2954	0.049
Mof_H 	H 	0.9081	-1.97903e-33	0.2784	0.023
Mof_O 	O 	0.9571	0.5	0.8466	-0.46
Mof_O 	O 	0.9575	0.5	0.798	-0.465
Mof_C 	C 	0.9461	0.5	0.8222	0.377
Mof_C 	C 	0.9133	0.5	0.8221	-0.099
Mof_C 	C 	0.8982	0.5	0.8472	-0.001
Mof_H 	H 	0.9078	0.5	0.8647	0.046
Mof_C 	C 	0.8686	0.5	0.8466	-0.031
Mof_C 	C 	0.8544	0.5	0.8198	0.109
Mof_C 	C 	0.8686	0.5	0.7944	-0.157
Mof_H 	H 	0.8588	0.5	0.7771	0.084
Mof_C 	C 	0.8978	0.5	0.7954	0.049
Mof_H 	H 	0.9081	0.5	0.7784	0.024
Mof_O 	O 	0.5429	0	0.1534	-0.462
Mof_O 	O 	0.5425	-3.95807e-33	0.202	-0.467
Mof_C 	C 	0.5539	0	0.1778	0.377
Mof_C 	C 	0.5867	-1.97903e-33	0.1779	-0.1
Mof_C 	C 	0.6018	0	0.1528	-0.001
Mof_H 	H 	0.5922	-9.89517e-34	0.1353	0.045
Mof_C 	C 	0.6314	0	0.1534	-0.031
Mof_C 	C 	0.6456	-1.97903e-33	0.1802	0.109
Mof_C 	C 	0.6314	-1.97903e-33	0.2056	-0.157
Mof_H 	H 	0.6412	0	0.2229	0.084
Mof_C 	C 	0.6022	0	0.2046	0.049
Mof_H 	H 	0.5919	-1.97903e-33	0.2216	0.023
Mof_O 	O 	0.5429	0.5	0.6534	-0.462
Mof_O 	O 	0.5425	0.5	0.702	-0.466
Mof_C 	C 	0.5539	0.5	0.6778	0.377
Mof_C 	C 	0.5867	0.5	0.6779	-0.1
Mof_C 	C 	0.6018	0.5	0.6528	-0.001
Mof_H 	H 	0.5922	0.5	0.6353	0.045
Mof_C 	C 	0.6314	0.5	0.6534	-0.031
Mof_C 	C 	0.6456	0.5	0.6802	0.109
Mof_C 	C 	0.6314	0.5	0.7056	-0.157
Mof_H 	H 	0.6412	0.5	0.7229	0.084
Mof_C 	C 	0.6022	0.5	0.7046	0.049
Mof_H 	H 	0.5919	0.5	0.7216	0.023
Mof_O 	O 	0.0429	-7.91613e-33	0.6534	-0.462
Mof_O 	O 	0.0425	-1.58323e-32	0.702	-0.467
Mof_C 	C 	0.0539	-7.91613e-33	0.6778	0.377
Mof_C 	C 	0.0867	0	0.6779	-0.1
Mof_C 	C 	0.1018	-7.91613e-33	0.6528	-0.001
Mof_H 	H 	0.0922	-7.91613e-33	0.6353	0.045
Mof_C 	C 	0.1314	-7.91613e-33	0.6534	-0.031
Mof_C 	C 	0.1456	-7.91613e-33	0.6802	0.109
Mof_C 	C 	0.1314	-7.91613e-33	0.7056	-0.157
Mof_H 	H 	0.1412	0	0.7229	0.084
Mof_C 	C 	0.1022	-1.58323e-32	0.7046	0.049
Mof_H 	H 	0.0919	-7.91613e-33	0.7216	0.023
Mof_O 	O 	0.0429	0.5	0.1534	-0.462
Mof_O 	O 	0.0425	0.5	0.202	-0.466
Mof_C 	C 	0.0539	0.5	0.1778	0.377
Mof_C 	C 	0.0867	0.5	0.1779	-0.1
Mof_C 	C 	0.1018	0.5	0.1528	-0.001
Mof_H 	H 	0.0922	0.5	0.1353	0.045
Mof_C 	C 	0.1314	0.5	0.1534	-0.031
Mof_C 	C 	0.1456	0.5	0.1802	0.109
Mof_C 	C 	0.1314	0.5	0.2056	-0.157
Mof_H 	H 	0.1412	0.5	0.2229	0.084
Mof_C 	C 	0.1022	0.5	0.2046	0.05
Mof_H 	H 	0.0919	0.5	0.2216	0.023
Mof_O 	O 	-2.24422e-33	0.1534	0.4571	-0.462
Mof_O 	O 	-6.20078e-33	0.202	0.4575	-0.467
Mof_C 	C 	1.67261e-33	0.1778	0.4461	0.377
Mof_C 	C 	1.54963e-33	0.1779	0.4133	-0.1
Mof_C 	C 	1.49301e-33	0.1528	0.3982	-0.001
Mof_H 	H 	1.52901e-33	0.1353	0.4078	0.045
Mof_C 	C 	1.38203e-33	0.1534	0.3686	-0.031
Mof_C 	C 	5.28685e-33	0.1802	0.3544	0.109
Mof_C 	C 	1.38203e-33	0.2056	0.3686	-0.157
Mof_H 	H 	-2.61278e-33	0.2229	0.3588	0.084
Mof_C 	C 	-2.46656e-33	0.2046	0.3978	0.049
Mof_H 	H 	-2.42794e-33	0.2216	0.4081	0.023
Mof_O 	O 	-2.01598e-32	0.6534	0.9571	-0.461
Mof_O 	O 	3.59005e-33	0.702	0.9575	-0.466
Mof_C 	C 	-4.36883e-33	0.6778	0.9461	0.377
Mof_C 	C 	1.92566e-32	0.6779	0.9133	-0.1
Mof_C 	C 	3.36771e-33	0.6528	0.8982	-0.001
Mof_H 	H 	3.4037e-33	0.6353	0.9078	0.045
Mof_C 	C 	-1.25755e-32	0.6534	0.8686	-0.031
Mof_C 	C 	1.11196e-32	0.6802	0.8544	0.109
Mof_C 	C 	1.11729e-32	0.7056	0.8686	-0.157
Mof_H 	H 	1.11361e-32	0.7229	0.8588	0.084
Mof_C 	C 	1.12823e-32	0.7046	0.8978	0.049
Mof_H 	H 	-4.5113e-33	0.7216	0.9081	0.023
Mof_O 	O 	0.5	0.1534	0.9571	-0.461
Mof_O 	O 	0.5	0.202	0.9575	-0.465
Mof_C 	C 	0.5	0.1778	0.9461	0.377
Mof_C 	C 	0.5	0.1779	0.9133	-0.099
Mof_C 	C 	0.5	0.1528	0.8982	-0.001
Mof_H 	H 	0.5	0.1353	0.9078	0.045
Mof_C 	C 	0.5	0.1534	0.8686	-0.031
Mof_C 	C 	0.5	0.1802	0.8544	0.109
Mof_C 	C 	0.5	0.2056	0.8686	-0.157
Mof_H 	H 	0.5	0.2229	0.8588	0.084
Mof_C 	C 	0.5	0.2046	0.8978	0.049
Mof_H 	H 	0.5	0.2216	0.9081	0.024
Mof_O 	O 	0.5	0.6534	0.4571	-0.462
Mof_O 	O 	0.5	0.702	0.4575	-0.466
Mof_C 	C 	0.5	0.6778	0.4461	0.377
Mof_C 	C 	0.5	0.6779	0.4133	-0.1
Mof_C 	C 	0.5	0.6528	0.3982	-0.001
Mof_H 	H 	0.5	0.6353	0.4078	0.045
Mof_C 	C 	0.5	0.6534	0.3686	-0.031
Mof_C 	C 	0.5	0.6802	0.3544	0.109
Mof_C 	C 	0.5	0.7056	0.3686	-0.157
Mof_H 	H 	0.5	0.7229	0.3588	0.084
Mof_C 	C 	0.5	0.7046	0.3978	0.049
Mof_H 	H 	0.5	0.7216	0.4081	0.023
Mof_O 	O 	1.78678e-32	0.8466	0.5429	-0.462
Mof_O 	O 	5.99212e-33	0.798	0.5425	-0.467
Mof_C 	C 	2.07679e-33	0.8222	0.5539	0.377
Mof_C 	C 	2.19977e-33	0.8221	0.5867	-0.1
Mof_C 	C 	2.25639e-33	0.8472	0.6018	-0.001
Mof_H 	H 	2.22039e-33	0.8647	0.5922	0.045
Mof_C 	C 	2.61158e-32	0.8466	0.6314	-0.031
Mof_C 	C 	-5.49552e-33	0.8198	0.6456	0.109
Mof_C 	C 	2.36737e-33	0.7944	0.6314	-0.157
Mof_H 	H 	-5.51202e-33	0.7771	0.6412	0.084
Mof_C 	C 	-5.65824e-33	0.7954	0.6022	0.049
Mof_H 	H 	-5.69686e-33	0.7784	0.5919	0.023
Mof_O 	O 	6.55608e-34	0.3466	0.0429	-0.462
Mof_O 	O 	3.62266e-33	0.298	0.0425	-0.467
Mof_C 	C 	2.67588e-33	0.3222	0.0539	0.377
Mof_C 	C 	1.31459e-33	0.3221	0.0867	-0.1
Mof_C 	C 	-6.07828e-34	0.3472	0.1018	-0.001
Mof_H 	H 	-3.61237e-33	0.3647	0.0922	0.045
Mof_C 	C 	1.48219e-33	0.3466	0.1314	-0.031
Mof_C 	C 	4.50398e-33	0.3198	0.1456	0.109
Mof_C 	C 	-2.47588e-33	0.2944	0.1314	-0.157
Mof_H 	H 	-4.60101e-34	0.2771	0.1412	0.084
Mof_C 	C 	-2.58536e-33	0.2954	0.1022	0.049
Mof_H 	H 	4.30264e-33	0.2784	0.0919	0.023
Mof_O 	O 	0.5	0.8466	0.0429	-0.462
Mof_O 	O 	0.5	0.798	0.0425	-0.466
Mof_C 	C 	0.5	0.8222	0.0539	0.377
Mof_C 	C 	0.5	0.8221	0.0867	-0.1
Mof_C 	C 	0.5	0.8472	0.1018	-0.001
Mof_H 	H 	0.5	0.8647	0.0922	0.045
Mof_C 	C 	0.5	0.8466	0.1314	-0.031
Mof_C 	C 	0.5	0.8198	0.1456	0.109
Mof_C 	C 	0.5	0.7944	0.1314	-0.157
Mof_H 	H 	0.5	0.7771	0.1412	0.084
Mof_C 	C 	0.5	0.7954	0.1022	0.05
Mof_H 	H 	0.5	0.7784	0.0919	0.023
Mof_O 	O 	0.5	0.3466	0.5429	-0.462
Mof_O 	O 	0.5	0.298	0.5425	-0.466
Mof_C 	C 	0.5	0.3222	0.5539	0.377
Mof_C 	C 	0.5	0.3221	0.5867	-0.1
Mof_C 	C 	0.5	0.3472	0.6018	-0.001
Mof_H 	H 	0.5	0.3647	0.5922	0.045
Mof_C 	C 	0.5	0.3466	0.6314	-0.031
Mof_C 	C 	0.5	0.3198	0.6456	0.109
Mof_C 	C 	0.5	0.2944	0.6314	-0.157
Mof_H 	H 	0.5	0.2771	0.6412	0.084
Mof_C 	C 	0.5	0.2954	0.6022	0.049
Mof_H 	H 	0.5	0.2784	0.5919	0.023
Mof_O 	O 	-1.92252e-33	0.1534	0.5429	-0.462
Mof_O 	O 	-1.92402e-33	0.202	0.5425	-0.467
Mof_C 	C 	2.07679e-33	0.1778	0.5539	0.377
Mof_C 	C 	2.19977e-33	0.1779	0.5867	-0.1
Mof_C 	C 	2.25639e-33	0.1528	0.6018	-0.001
Mof_H 	H 	2.22039e-33	0.1353	0.5922	0.045
Mof_C 	C 	2.36737e-33	0.1534	0.6314	-0.031
Mof_C 	C 	2.42061e-33	0.1802	0.6456	0.109
Mof_C 	C 	-5.54876e-33	0.2056	0.6314	-0.157
Mof_H 	H 	2.40411e-33	0.2229	0.6412	0.084
Mof_C 	C 	2.25789e-33	0.2046	0.6022	0.049
Mof_H 	H 	2.21927e-33	0.2216	0.5919	0.023
Mof_O 	O 	-3.30246e-33	0.6534	0.0429	-0.462
Mof_O 	O 	-8.25154e-33	0.702	0.0425	-0.467
Mof_C 	C 	2.67588e-33	0.6778	0.0539	0.377
Mof_C 	C 	1.31459e-33	0.6779	0.0867	-0.1
Mof_C 	C 	-6.07828e-34	0.6528	0.1018	-0.001
Mof_H 	H 	4.30376e-33	0.6353	0.0922	0.045
Mof_C 	C 	-2.47588e-33	0.6534	0.1314	-0.031
Mof_C 	C 	4.50398e-33	0.6802	0.1456	0.109
Mof_C 	C 	-2.47588e-33	0.7056	0.1314	-0.157
Mof_H 	H 	3.49796e-33	0.7229	0.1412	0.084
Mof_C 	C 	-2.58536e-33	0.7046	0.1022	0.049
Mof_H 	H 	4.30264e-33	0.7216	0.0919	0.023
Mof_O 	O 	0.5	0.1534	0.0429	-0.462
Mof_O 	O 	0.5	0.202	0.0425	-0.466
Mof_C 	C 	0.5	0.1778	0.0539	0.377
Mof_C 	C 	0.5	0.1779	0.0867	-0.1
Mof_C 	C 	0.5	0.1528	0.1018	-0.001
Mof_H 	H 	0.5	0.1353	0.0922	0.045
Mof_C 	C 	0.5	0.1534	0.1314	-0.031
Mof_C 	C 	0.5	0.1802	0.1456	0.109
Mof_C 	C 	0.5	0.2056	0.1314	-0.157
Mof_H 	H 	0.5	0.2229	0.1412	0.084
Mof_C 	C 	0.5	0.2046	0.1022	0.05
Mof_H 	H 	0.5	0.2216	0.0919	0.023
Mof_O 	O 	0.5	0.6534	0.5429	-0.462
Mof_O 	O 	0.5	0.702	0.5425	-0.466
Mof_C 	C 	0.5	0.6778	0.5539	0.377
Mof_C 	C 	0.5	0.6779	0.5867	-0.1
Mof_C 	C 	0.5	0.6528	0.6018	-0.001
Mof_H 	H 	0.5	0.6353	0.5922	0.045
Mof_C 	C 	0.5	0.6534	0.6314	-0.031
Mof_C 	C 	0.5	0.6802	0.6456	0.109
Mof_C 	C 	0.5	0.7056	0.6314	-0.157
Mof_H 	H 	0.5	0.7229	0.6412	0.084
Mof_C 	C 	0.5	0.7046	0.6022	0.049
Mof_H 	H 	0.5	0.7216	0.5919	0.023
Mof_O 	O 	1.3588e-32	0.8466	0.4571	-0.462
Mof_O 	O 	-1.41169e-32	0.798	0.4575	-0.467
Mof_C 	C 	9.58874e-33	0.8222	0.4461	0.377
Mof_C 	C 	1.54963e-33	0.8221	0.4133	-0.1
Mof_C 	C 	5.45108e-33	0.8472	0.3982	-0.001
Mof_H 	H 	-6.38713e-33	0.8647	0.4078	0.045
Mof_C 	C 	1.72143e-32	0.8466	0.3686	-0.031
Mof_C 	C 	1.32879e-33	0.8198	0.3544	0.109
Mof_C 	C 	9.29816e-33	0.7944	0.3686	-0.157
Mof_H 	H 	5.30335e-33	0.7771	0.3588	0.084
Mof_C 	C 	-2.46656e-33	0.7954	0.3978	0.049
Mof_H 	H 	-2.42794e-33	0.7784	0.4081	0.023
Mof_O 	O 	-1.22437e-32	0.3466	0.9571	-0.461
Mof_O 	O 	-1.22422e-32	0.298	0.9575	-0.466
Mof_C 	C 	3.54731e-33	0.3222	0.9461	0.377
Mof_C 	C 	3.42433e-33	0.3221	0.9133	-0.1
Mof_C 	C 	3.36771e-33	0.3472	0.8982	-0.001
Mof_H 	H 	-2.03447e-32	0.3647	0.9078	0.045
Mof_C 	C 	-4.6594e-33	0.3466	0.8686	-0.031
Mof_C 	C 	3.20349e-33	0.3198	0.8544	0.109
Mof_C 	C 	3.25673e-33	0.2944	0.8686	-0.157
Mof_H 	H 	3.21998e-33	0.2771	0.8588	0.084
Mof_C 	C 	-1.24661e-32	0.2954	0.8978	0.049
Mof_H 	H 	-4.5113e-33	0.2784	0.9081	0.023
Mof_O 	O 	0.5	0.8466	0.9571	-0.46
Mof_O 	O 	0.5	0.798	0.9575	-0.465
Mof_C 	C 	0.5	0.8222	0.9461	0.377
Mof_C 	C 	0.5	0.8221	0.9133	-0.099
Mof_C 	C 	0.5	0.8472	0.8982	-0.001
Mof_H 	H 	0.5	0.8647	0.9078	0.046
Mof_C 	C 	0.5	0.8466	0.8686	-0.031
Mof_C 	C 	0.5	0.8198	0.8544	0.109
Mof_C 	C 	0.5	0.7944	0.8686	-0.157
Mof_H 	H 	0.5	0.7771	0.8588	0.084
Mof_C 	C 	0.5	0.7954	0.8978	0.049
Mof_H 	H 	0.5	0.7784	0.9081	0.024
Mof_O 	O 	0.5	0.3466	0.4571	-0.462
Mof_O 	O 	0.5	0.298	0.4575	-0.466
Mof_C 	C 	0.5	0.3222	0.4461	0.377
Mof_C 	C 	0.5	0.3221	0.4133	-0.1
Mof_C 	C 	0.5	0.3472	0.3982	-0.001
Mof_H 	H 	0.5	0.3647	0.4078	0.045
Mof_C 	C 	0.5	0.3466	0.3686	-0.031
Mof_C 	C 	0.5	0.3198	0.3544	0.109
Mof_C 	C 	0.5	0.2944	0.3686	-0.157
Mof_H 	H 	0.5	0.2771	0.3588	0.084
Mof_C 	C 	0.5	0.2954	0.3978	0.049
Mof_H 	H 	0.5	0.2784	0.4081	0.023
Mof_N 	N 	0.6749	0.1749	-0	-0.174
Mof_C 	C 	0.6969	0.1969	-0	0.18
Mof_C 	C 	0.7389	0.2389	-0	-0.011
Mof_N 	N 	0.6749	0.6749	0.5	-0.175
Mof_C 	C 	0.6969	0.6969	0.5	0.184
Mof_C 	C 	0.7389	0.7389	0.5	-0.01
Mof_N 	N 	0.3251	0.8251	-0	-0.174
Mof_C 	C 	0.3031	0.8031	-0	0.18
Mof_C 	C 	0.2611	0.7611	-0	-0.012
Mof_N 	N 	0.3251	0.3251	0.5	-0.175
Mof_C 	C 	0.3031	0.3031	0.5	0.184
Mof_C 	C 	0.2611	0.2611	0.5	-0.01
Mof_N 	N 	0.8251	0.8251	0.5	-0.175
Mof_C 	C 	0.8031	0.8031	0.5	0.184
Mof_C 	C 	0.7611	0.7611	0.5	-0.01
Mof_N 	N 	0.3251	0.1749	-0	-0.174
Mof_C 	C 	0.3031	0.1969	-0	0.18
Mof_C 	C 	0.2611	0.2389	-0	-0.011
Mof_N 	N 	0.3251	0.6749	0.5	-0.175
Mof_C 	C 	0.3031	0.6969	0.5	0.184
Mof_C 	C 	0.2611	0.7389	0.5	-0.01
Mof_N 	N 	0.8251	0.6749	-0	-0.174
Mof_C 	C 	0.8031	0.6969	-0	0.18
Mof_C 	C 	0.7611	0.7389	-0	-0.011
Mof_N 	N 	0.6749	0.8251	-0	-0.174
Mof_C 	C 	0.6969	0.8031	-0	0.18
Mof_C 	C 	0.7389	0.7611	-0	-0.011
Mof_N 	N 	0.6749	0.3251	0.5	-0.175
Mof_C 	C 	0.6969	0.3031	0.5	0.184
Mof_C 	C 	0.7389	0.2611	0.5	-0.01
Mof_N 	N 	2.6348e-33	0.6749	0.1749	-0.174
Mof_C 	C 	4.69632e-33	0.6969	0.1969	0.18
Mof_C 	C 	-5.04137e-33	0.7389	0.2389	-0.011
Mof_N 	N 	0.5	0.6749	0.6749	-0.175
Mof_C 	C 	0.5	0.6969	0.6969	0.184
Mof_C 	C 	0.5	0.7389	0.7389	-0.01
Mof_N 	N 	-4.8225e-33	0.3251	0.8251	-0.174
Mof_C 	C 	-4.90499e-33	0.3031	0.8031	0.18
Mof_C 	C 	1.07698e-32	0.2611	0.7611	-0.012
Mof_N 	N 	0.5	0.3251	0.3251	-0.175
Mof_C 	C 	0.5	0.3031	0.3031	0.184
Mof_C 	C 	0.5	0.2611	0.2611	-0.01
Mof_N 	N 	0.5	0.8251	0.8251	-0.175
Mof_C 	C 	0.5	0.8031	0.8031	0.184
Mof_C 	C 	0.5	0.7611	0.7611	-0.01
Mof_N 	N 	2.6348e-33	0.3251	0.1749	-0.174
Mof_C 	C 	4.69632e-33	0.3031	0.1969	0.18
Mof_C 	C 	2.87476e-33	0.2611	0.2389	-0.011
Mof_N 	N 	-5.38566e-33	0.8251	0.6749	-0.174
Mof_C 	C 	-5.30318e-33	0.8031	0.6969	0.18
Mof_C 	C 	2.77043e-33	0.7611	0.7389	-0.011
Mof_N 	N 	0.5	0.3251	0.6749	-0.175
Mof_C 	C 	0.5	0.3031	0.6969	0.184
Mof_C 	C 	0.5	0.2611	0.7389	-0.01
Mof_N 	N 	-1.27386e-32	0.6749	0.8251	-0.174
Mof_C 	C 	-4.90499e-33	0.6969	0.8031	0.18
Mof_C 	C 	2.85367e-33	0.7389	0.7611	-0.011
Mof_N 	N 	0.5	0.6749	0.3251	-0.175
Mof_C 	C 	0.5	0.6969	0.3031	0.184
Mof_C 	C 	0.5	0.7389	0.2611	-0.01
Mof_N 	N 	0.1749	0	0.6749	-0.174
Mof_C 	C 	0.1969	-7.91613e-33	0.6969	0.18
Mof_C 	C 	0.2389	-7.91613e-33	0.7389	-0.011
Mof_N 	N 	0.1749	0.5	0.1749	-0.175
Mof_C 	C 	0.1969	0.5	0.1969	0.184
Mof_C 	C 	0.2389	0.5	0.2389	-0.01
Mof_N 	N 	0.6749	0.5	0.6749	-0.175
Mof_C 	C 	0.6969	0.5	0.6969	0.184
Mof_C 	C 	0.7389	0.5	0.7389	-0.01
Mof_N 	N 	0.8251	-3.95807e-33	0.3251	-0.174
Mof_C 	C 	0.8031	0	0.3031	0.18
Mof_C 	C 	0.7611	-1.97903e-33	0.2611	-0.012
Mof_N 	N 	0.8251	0.5	0.8251	-0.175
Mof_C 	C 	0.8031	0.5	0.8031	0.184
Mof_C 	C 	0.7611	0.5	0.7611	-0.01
Mof_N 	N 	0.1749	-3.95807e-33	0.3251	-0.174
Mof_C 	C 	0.1969	0	0.3031	0.18
Mof_C 	C 	0.2389	-1.97903e-33	0.2611	-0.011
Mof_N 	N 	0.1749	0.5	0.8251	-0.175
Mof_C 	C 	0.1969	0.5	0.8031	0.184
Mof_C 	C 	0.2389	0.5	0.7611	-0.01
Mof_N 	N 	0.6749	-7.91613e-33	0.8251	-0.174
Mof_C 	C 	0.6969	-1.58323e-32	0.8031	0.18
Mof_C 	C 	0.7389	0	0.7611	-0.011
Mof_N 	N 	0.8251	0	0.6749	-0.174
Mof_C 	C 	0.8031	-7.91613e-33	0.6969	0.18
Mof_C 	C 	0.7611	-7.91613e-33	0.7389	-0.011
Mof_N 	N 	0.8251	0.5	0.1749	-0.175
Mof_C 	C 	0.8031	0.5	0.1969	0.184
Mof_C 	C 	0.7611	0.5	0.2389	-0.01
Mof_N 	N 	0.1749	0.6749	-0	-0.174
Mof_C 	C 	0.1969	0.6969	-0	0.18
Mof_C 	C 	0.2389	0.7389	-0	-0.011
Mof_N 	N 	0.1749	0.1749	0.5	-0.175
Mof_C 	C 	0.1969	0.1969	0.5	0.184
Mof_C 	C 	0.2389	0.2389	0.5	-0.01
Mof_N 	N 	0.8251	0.3251	-0	-0.174
Mof_C 	C 	0.8031	0.3031	-0	0.18
Mof_C 	C 	0.7611	0.2611	-0	-0.012
Mof_N 	N 	0.1749	0.3251	-0	-0.174
Mof_C 	C 	0.1969	0.3031	-0	0.18
Mof_C 	C 	0.2389	0.2611	-0	-0.011
Mof_N 	N 	0.1749	0.8251	0.5	-0.175
Mof_C 	C 	0.1969	0.8031	0.5	0.184
Mof_C 	C 	0.2389	0.7611	0.5	-0.01
Mof_N 	N 	0.8251	0.1749	0.5	-0.175
Mof_C 	C 	0.8031	0.1969	0.5	0.184
Mof_C 	C 	0.7611	0.2389	0.5	-0.01
Mof_N 	N 	0.6749	0.5	0.3251	-0.175
Mof_C 	C 	0.6969	0.5	0.3031	0.184
Mof_C 	C 	0.7389	0.5	0.2611	-0.01
Mof_N 	N 	0.3251	0	0.1749	-0.174
Mof_C 	C 	0.3031	-1.97903e-33	0.1969	0.18
Mof_C 	C 	0.2611	-1.97903e-33	0.2389	-0.011
Mof_N 	N 	0.3251	0.5	0.6749	-0.175
Mof_C 	C 	0.3031	0.5	0.6969	0.184
Mof_C 	C 	0.2611	0.5	0.7389	-0.01
Mof_N 	N 	0.3251	-7.91613e-33	0.8251	-0.174
Mof_C 	C 	0.3031	-1.58323e-32	0.8031	0.18
Mof_C 	C 	0.2611	0	0.7611	-0.012
Mof_N 	N 	0.3251	0.5	0.3251	-0.175
Mof_C 	C 	0.3031	0.5	0.3031	0.184
Mof_C 	C 	0.2611	0.5	0.2611	-0.01
Mof_N 	N 	0.6749	0	0.1749	-0.174
Mof_C 	C 	0.6969	-1.97903e-33	0.1969	0.18
Mof_C 	C 	0.7389	-1.97903e-33	0.2389	-0.011
Mof_N 	N 	1.21893e-33	0.1749	0.3251	-0.174
Mof_C 	C 	5.09451e-33	0.1969	0.3031	0.18
Mof_C 	C 	2.958e-33	0.2389	0.2611	-0.011
Mof_N 	N 	0.5	0.1749	0.8251	-0.175
Mof_C 	C 	0.5	0.1969	0.8031	0.184
Mof_C 	C 	0.5	0.2389	0.7611	-0.01
Mof_N 	N 	0.5	0.8251	0.1749	-0.175
Mof_C 	C 	0.5	0.8031	0.1969	0.184
Mof_C 	C 	0.5	0.7611	0.2389	-0.01
Mof_N 	N 	2.53047e-33	0.1749	0.6749	-0.174
Mof_C 	C 	2.61296e-33	0.1969	0.6969	0.18
Mof_C 	C 	-5.1457e-33	0.2389	0.7389	-0.011
Mof_N 	N 	0.5	0.1749	0.1749	-0.175
Mof_C 	C 	0.5	0.1969	0.1969	0.184
Mof_C 	C 	0.5	0.2389	0.2389	-0.01
Mof_N 	N 	1.21893e-33	0.8251	0.3251	-0.174
Mof_C 	C 	1.13644e-33	0.8031	0.3031	0.18
Mof_C 	C 	1.68112e-32	0.7611	0.2611	-0.012
_end
