data_functionalizedCrystal
_audit_creation_method	'EQeq! by Chris Wilmer'
_symmetry_space_group_name_H-M	'P1'
_symmetry_Int_Tables_number	1
_symmetry_cell_setting	triclinic
loop_
_symmetry_equiv_pos_as_xyz
  x,y,z
_cell_length_a	30.664
_cell_length_b	17.225
_cell_length_c	27.371
_cell_angle_alpha	90
_cell_angle_beta	105.9
_cell_angle_gamma	90
loop_
_atom_site_label
_atom_site_type_symbol
_atom_site_fract_x
_atom_site_fract_y
_atom_site_fract_z
_atom_site_charge
Mof_Cd	Cd	0.37079	0.76297	0.14349	0.487
Mof_C 	C 	0.28802	0.9509	0.227	0.205
Mof_N 	N 	0.2684	0.9262	0.1792	-0.173
Mof_C 	C 	0.29248	0.8837	0.15426	0.201
Mof_N 	N 	0.33618	0.866	0.1771	-0.175
Mof_C 	C 	0.35581	0.8906	0.2249	0.206
Mof_N 	N 	0.33172	0.9331	0.24982	-0.164
Mof_C 	C 	0.2309	0.8794	0.0732	0.046
Mof_C 	C 	0.2086	0.9526	0.0787	-0.115
Mof_H 	H 	0.2196	0.9843	0.1069	0.078
Mof_C 	C 	0.1694	0.9735	0.0391	0.006
Mof_H 	H 	0.1554	0.0211	0.04	0.03
Mof_C 	C 	0.1516	0.9211	0.998	-0.009
Mof_H 	H 	0.126	0.9347	0.9722	0.043
Mof_C 	C 	0.173	0.8479	0.9965	-0.003
Mof_C 	C 	0.1577	0.8018	0.948	0.287
Mof_C 	C 	0.2228	0.0364	0.2324	0.048
Mof_C 	C 	0.1891	0.0014	0.1926	-0.06
Mof_H 	H 	0.197	0.9618	0.1734	0.049
Mof_C 	C 	0.1435	0.0265	0.1819	-0.003
Mof_H 	H 	0.1214	0.0035	0.1557	0.023
Mof_C 	C 	0.1316	0.0867	0.211	-0.012
Mof_H 	H 	0.1017	0.1032	0.204	0.037
Mof_C 	C 	0.1544	0.1599	0.2962	0.295
Mof_C 	C 	0.4315	0.9132	0.2888	0.082
Mof_C 	C 	0.4239	0.9713	0.3201	-0.065
Mof_H 	H 	0.3956	0.995	0.3132	0.058
Mof_C 	C 	0.5514	0.8474	0.3545	0.293
Mof_N 	N 	0.278	0.8785	0.0999	-0.072
Mof_N 	N 	0.271	0.0097	0.2488	-0.092
Mof_N 	N 	0.4016	0.8918	0.237	-0.084
Mof_O 	O 	0.18082	0.7473	0.94208	-0.26
Mof_O 	O 	0.12168	0.8254	0.917	-0.26
Mof_O 	O 	0.11373	0.1812	0.2857	-0.254
Mof_O 	O 	0.185	0.182	0.3317	-0.264
Mof_O 	O 	0.5565	0.8012	0.3221	-0.262
Mof_O 	O 	0.5809	0.864	0.3937	-0.25
Mof_C 	C 	0.5001	0.9591	0.3717	-0.036
Mof_H 	H 	0.5233	0.9747	0.3998	0.047
Mof_C 	C 	0.5077	0.9011	0.3404	0.021
Mof_C 	C 	0.4734	0.8781	0.2989	-0.027
Mof_H 	H 	0.4785	0.8389	0.2778	0.05
Mof_C 	C 	0.4582	0.9942	0.3616	-0.023
Mof_H 	H 	0.4531	0.0334	0.3827	0.035
Mof_C 	C 	0.1653	0.1218	0.2508	-0.034
Mof_C 	C 	0.2109	0.0966	0.2615	-0.061
Mof_H 	H 	0.233	0.1197	0.2877	0.054
Mof_C 	C 	0.2123	0.8271	0.0361	-0.034
Mof_H 	H 	0.225	0.778	0.0365	0.071
Mof_C 	C 	0.2294	0.8793	0.073	0.052
Mof_C 	C 	0.1946	0.9119	0.0941	0.009
Mof_H 	H 	0.2023	0.9298	0.1274	0.029
Mof_C 	C 	0.1478	0.9165	0.0629	-0.045
Mof_H 	H 	0.1256	0.9373	0.0764	0.045
Mof_C 	C 	0.1357	0.8885	0.0107	-0.053
Mof_H 	H 	0.1067	0.8924	0.9889	0.056
Mof_C 	C 	0.1748	0.8524	0.9953	-0.01
Mof_C 	C 	0.2178	0.9965	0.2491	0.056
Mof_C 	C 	0.1824	0.9577	0.2132	-0.046
Mof_H 	H 	0.1889	0.9153	0.1953	0.046
Mof_C 	C 	0.137	0.9834	0.2044	-0.024
Mof_H 	H 	0.1138	0.9579	0.1808	0.034
Mof_C 	C 	0.1271	0.0479	0.2316	-0.041
Mof_H 	H 	0.0973	0.0648	0.2259	0.05
Mof_C 	C 	0.4253	0.8799	0.2971	0.02
Mof_C 	C 	0.4134	0.9296	0.3359	-0.045
Mof_H 	H 	0.3842	0.9481	0.3322	0.054
Mof_N 	N 	0.2707	0.8441	0.1114	-0.081
Mof_N 	N 	0.2624	0.9698	0.262	-0.081
Mof_N 	N 	0.396	0.8568	0.2492	-0.072
Mof_C 	C 	0.4922	0.9188	0.3903	-0.027
Mof_H 	H 	0.5141	0.9288	0.4206	0.044
Mof_C 	C 	0.5012	0.8716	0.3514	-0.039
Mof_C 	C 	0.4675	0.847	0.309	-0.048
Mof_H 	H 	0.4737	0.8078	0.2885	0.056
Mof_C 	C 	0.451	0.9473	0.3804	0.006
Mof_H 	H 	0.4452	0.9819	0.404	0.026
Mof_C 	C 	0.1625	0.0867	0.2675	0.007
Mof_C 	C 	0.2078	0.061	0.2763	-0.015
Mof_H 	H 	0.2311	0.0864	0.2999	0.042
Mof_C 	C 	0.2173	0.8513	0.0207	-0.071
Mof_H 	H 	0.2394	0.8332	0.0061	0.08
Mof_Cd	Cd	0.87079	0.26297	0.14349	0.488
Mof_C 	C 	0.78802	0.4509	0.227	0.206
Mof_N 	N 	0.7684	0.4262	0.1792	-0.172
Mof_C 	C 	0.79248	0.3837	0.15426	0.202
Mof_N 	N 	0.83618	0.366	0.1771	-0.174
Mof_C 	C 	0.85581	0.3906	0.2249	0.207
Mof_N 	N 	0.83172	0.4331	0.24982	-0.163
Mof_C 	C 	0.7309	0.3794	0.0732	0.047
Mof_C 	C 	0.7086	0.4526	0.0787	-0.113
Mof_H 	H 	0.7196	0.4843	0.1069	0.078
Mof_C 	C 	0.6694	0.4735	0.0391	0.006
Mof_H 	H 	0.6554	0.5211	0.04	0.032
Mof_C 	C 	0.6516	0.4211	0.998	-0.008
Mof_H 	H 	0.626	0.4347	0.9722	0.044
Mof_C 	C 	0.673	0.3479	0.9965	-0.002
Mof_C 	C 	0.6577	0.3018	0.948	0.288
Mof_C 	C 	0.7228	0.5364	0.2324	0.049
Mof_C 	C 	0.6891	0.5014	0.1926	-0.059
Mof_H 	H 	0.697	0.4618	0.1734	0.05
Mof_C 	C 	0.6435	0.5265	0.1819	-0.002
Mof_H 	H 	0.6214	0.5035	0.1557	0.024
Mof_C 	C 	0.6316	0.5867	0.211	-0.011
Mof_H 	H 	0.6017	0.6032	0.204	0.038
Mof_C 	C 	0.6544	0.6599	0.2962	0.296
Mof_C 	C 	0.9315	0.4132	0.2888	0.083
Mof_C 	C 	0.9239	0.4713	0.3201	-0.064
Mof_H 	H 	0.8956	0.495	0.3132	0.059
Mof_C 	C 	0.0514	0.3474	0.3545	0.294
Mof_N 	N 	0.778	0.3785	0.0999	-0.071
Mof_N 	N 	0.771	0.5097	0.2488	-0.091
Mof_N 	N 	0.9016	0.3918	0.237	-0.084
Mof_O 	O 	0.68082	0.2473	0.94208	-0.26
Mof_O 	O 	0.62168	0.3254	0.917	-0.26
Mof_O 	O 	0.61373	0.6812	0.2857	-0.254
Mof_O 	O 	0.685	0.682	0.3317	-0.264
Mof_O 	O 	0.0565	0.3012	0.3221	-0.262
Mof_O 	O 	0.0809	0.364	0.3937	-0.25
Mof_C 	C 	0.0001	0.4591	0.3717	-0.036
Mof_H 	H 	0.0233	0.4747	0.3998	0.047
Mof_C 	C 	0.0077	0.4011	0.3404	0.021
Mof_C 	C 	0.9734	0.3781	0.2989	-0.027
Mof_H 	H 	0.9785	0.3389	0.2778	0.05
Mof_C 	C 	0.9582	0.4942	0.3616	-0.023
Mof_H 	H 	0.9531	0.5334	0.3827	0.035
Mof_C 	C 	0.6653	0.6218	0.2508	-0.034
Mof_C 	C 	0.7109	0.5966	0.2615	-0.061
Mof_H 	H 	0.733	0.6197	0.2877	0.054
Mof_C 	C 	0.7123	0.3271	0.0361	-0.034
Mof_H 	H 	0.725	0.278	0.0365	0.071
Mof_C 	C 	0.7294	0.3793	0.073	0.052
Mof_C 	C 	0.6946	0.4119	0.0941	0.008
Mof_H 	H 	0.7023	0.4298	0.1274	0.029
Mof_C 	C 	0.6478	0.4165	0.0629	-0.045
Mof_H 	H 	0.6256	0.4373	0.0764	0.045
Mof_C 	C 	0.6357	0.3885	0.0107	-0.053
Mof_H 	H 	0.6067	0.3924	0.9889	0.056
Mof_C 	C 	0.6748	0.3524	0.9953	-0.01
Mof_C 	C 	0.7178	0.4965	0.2491	0.057
Mof_C 	C 	0.6824	0.4577	0.2132	-0.046
Mof_H 	H 	0.6889	0.4153	0.1953	0.046
Mof_C 	C 	0.637	0.4834	0.2044	-0.024
Mof_H 	H 	0.6138	0.4579	0.1808	0.034
Mof_C 	C 	0.6271	0.5479	0.2316	-0.041
Mof_H 	H 	0.5973	0.5648	0.2259	0.05
Mof_C 	C 	0.9253	0.3799	0.2971	0.02
Mof_C 	C 	0.9134	0.4296	0.3359	-0.045
Mof_H 	H 	0.8842	0.4481	0.3322	0.054
Mof_N 	N 	0.7707	0.3441	0.1114	-0.081
Mof_N 	N 	0.7624	0.4698	0.262	-0.081
Mof_N 	N 	0.896	0.3568	0.2492	-0.072
Mof_C 	C 	0.9922	0.4188	0.3903	-0.027
Mof_H 	H 	0.0141	0.4288	0.4206	0.044
Mof_C 	C 	0.0012	0.3716	0.3514	-0.039
Mof_C 	C 	0.9675	0.347	0.309	-0.048
Mof_H 	H 	0.9737	0.3078	0.2885	0.056
Mof_C 	C 	0.951	0.4473	0.3804	0.006
Mof_H 	H 	0.9452	0.4819	0.404	0.026
Mof_C 	C 	0.6625	0.5867	0.2675	0.007
Mof_C 	C 	0.7078	0.561	0.2763	-0.015
Mof_H 	H 	0.7311	0.5864	0.2999	0.042
Mof_C 	C 	0.7173	0.3513	0.0207	-0.071
Mof_H 	H 	0.7394	0.3332	0.0061	0.08
Mof_Cd	Cd	0.62921	0.76297	0.35651	0.488
Mof_C 	C 	0.71198	0.9509	0.273	0.206
Mof_N 	N 	0.7316	0.9262	0.3208	-0.172
Mof_C 	C 	0.70752	0.8837	0.34574	0.202
Mof_N 	N 	0.66382	0.866	0.3229	-0.174
Mof_C 	C 	0.64419	0.8906	0.2751	0.207
Mof_N 	N 	0.66828	0.9331	0.25018	-0.163
Mof_C 	C 	0.7691	0.8794	0.4268	0.047
Mof_C 	C 	0.7914	0.9526	0.4213	-0.113
Mof_H 	H 	0.7804	0.9843	0.3931	0.079
Mof_C 	C 	0.8306	0.9735	0.4609	0.006
Mof_H 	H 	0.8446	0.0211	0.46	0.032
Mof_C 	C 	0.8484	0.9211	0.502	-0.008
Mof_H 	H 	0.874	0.9347	0.5278	0.044
Mof_C 	C 	0.827	0.8479	0.5035	-0.002
Mof_C 	C 	0.8423	0.8018	0.552	0.288
Mof_C 	C 	0.7772	0.0364	0.2676	0.049
Mof_C 	C 	0.8109	0.0014	0.3074	-0.059
Mof_H 	H 	0.803	0.9618	0.3266	0.05
Mof_C 	C 	0.8565	0.0265	0.3181	-0.002
Mof_H 	H 	0.8786	0.0035	0.3443	0.024
Mof_C 	C 	0.8684	0.0867	0.289	-0.011
Mof_H 	H 	0.8983	0.1032	0.296	0.038
Mof_C 	C 	0.8456	0.1599	0.2038	0.296
Mof_C 	C 	0.5685	0.9132	0.2112	0.083
Mof_C 	C 	0.5761	0.9713	0.1799	-0.064
Mof_H 	H 	0.6044	0.995	0.1868	0.059
Mof_C 	C 	0.4486	0.8474	0.1455	0.294
Mof_N 	N 	0.722	0.8785	0.4001	-0.071
Mof_N 	N 	0.729	0.0097	0.2512	-0.091
Mof_N 	N 	0.5984	0.8918	0.263	-0.084
Mof_O 	O 	0.81918	0.7473	0.55792	-0.26
Mof_O 	O 	0.87832	0.8254	0.583	-0.26
Mof_O 	O 	0.88627	0.1812	0.2143	-0.254
Mof_O 	O 	0.815	0.182	0.1683	-0.264
Mof_O 	O 	0.4435	0.8012	0.1779	-0.262
Mof_O 	O 	0.4191	0.864	0.1063	-0.25
Mof_C 	C 	0.4999	0.9591	0.1283	-0.036
Mof_H 	H 	0.4767	0.9747	0.1002	0.047
Mof_C 	C 	0.4923	0.9011	0.1596	0.021
Mof_C 	C 	0.5266	0.8781	0.2011	-0.027
Mof_H 	H 	0.5215	0.8389	0.2222	0.05
Mof_C 	C 	0.5418	0.9942	0.1384	-0.023
Mof_H 	H 	0.5469	0.0334	0.1173	0.035
Mof_C 	C 	0.8347	0.1218	0.2492	-0.034
Mof_C 	C 	0.7891	0.0966	0.2385	-0.061
Mof_H 	H 	0.767	0.1197	0.2123	0.054
Mof_C 	C 	0.7877	0.8271	0.4639	-0.034
Mof_H 	H 	0.775	0.778	0.4635	0.071
Mof_C 	C 	0.7706	0.8793	0.427	0.052
Mof_C 	C 	0.8054	0.9119	0.4059	0.008
Mof_H 	H 	0.7977	0.9298	0.3726	0.029
Mof_C 	C 	0.8522	0.9165	0.4371	-0.045
Mof_H 	H 	0.8744	0.9373	0.4236	0.045
Mof_C 	C 	0.8643	0.8885	0.4893	-0.053
Mof_H 	H 	0.8933	0.8924	0.5111	0.056
Mof_C 	C 	0.8252	0.8524	0.5047	-0.01
Mof_C 	C 	0.7822	0.9965	0.2509	0.056
Mof_C 	C 	0.8176	0.9577	0.2868	-0.046
Mof_H 	H 	0.8111	0.9153	0.3047	0.046
Mof_C 	C 	0.863	0.9834	0.2956	-0.024
Mof_H 	H 	0.8862	0.9579	0.3192	0.034
Mof_C 	C 	0.8729	0.0479	0.2684	-0.041
Mof_H 	H 	0.9027	0.0648	0.2741	0.05
Mof_C 	C 	0.5747	0.8799	0.2029	0.02
Mof_C 	C 	0.5866	0.9296	0.1641	-0.045
Mof_H 	H 	0.6158	0.9481	0.1678	0.054
Mof_N 	N 	0.7293	0.8441	0.3886	-0.081
Mof_N 	N 	0.7376	0.9698	0.238	-0.081
Mof_N 	N 	0.604	0.8568	0.2508	-0.072
Mof_C 	C 	0.5078	0.9188	0.1097	-0.027
Mof_H 	H 	0.4859	0.9288	0.0794	0.044
Mof_C 	C 	0.4988	0.8716	0.1486	-0.039
Mof_C 	C 	0.5325	0.847	0.191	-0.049
Mof_H 	H 	0.5263	0.8078	0.2115	0.056
Mof_C 	C 	0.549	0.9473	0.1196	0.006
Mof_H 	H 	0.5548	0.9819	0.096	0.026
Mof_C 	C 	0.8375	0.0867	0.2325	0.007
Mof_C 	C 	0.7922	0.061	0.2237	-0.015
Mof_H 	H 	0.7689	0.0864	0.2001	0.042
Mof_C 	C 	0.7827	0.8513	0.4793	-0.071
Mof_H 	H 	0.7606	0.8332	0.4939	0.08
Mof_Cd	Cd	0.12921	0.26297	0.35651	0.488
Mof_C 	C 	0.21198	0.4509	0.273	0.206
Mof_N 	N 	0.2316	0.4262	0.3208	-0.172
Mof_C 	C 	0.20752	0.3837	0.34574	0.202
Mof_N 	N 	0.16382	0.366	0.3229	-0.174
Mof_C 	C 	0.14419	0.3906	0.2751	0.207
Mof_N 	N 	0.16828	0.4331	0.25018	-0.163
Mof_C 	C 	0.2691	0.3794	0.4268	0.047
Mof_C 	C 	0.2914	0.4526	0.4213	-0.113
Mof_H 	H 	0.2804	0.4843	0.3931	0.078
Mof_C 	C 	0.3306	0.4735	0.4609	0.006
Mof_H 	H 	0.3446	0.5211	0.46	0.032
Mof_C 	C 	0.3484	0.4211	0.502	-0.008
Mof_H 	H 	0.374	0.4347	0.5278	0.044
Mof_C 	C 	0.327	0.3479	0.5035	-0.002
Mof_C 	C 	0.3423	0.3018	0.552	0.288
Mof_C 	C 	0.2772	0.5364	0.2676	0.049
Mof_C 	C 	0.3109	0.5014	0.3074	-0.059
Mof_H 	H 	0.303	0.4618	0.3266	0.05
Mof_C 	C 	0.3565	0.5265	0.3181	-0.002
Mof_H 	H 	0.3786	0.5035	0.3443	0.024
Mof_C 	C 	0.3684	0.5867	0.289	-0.011
Mof_H 	H 	0.3983	0.6032	0.296	0.038
Mof_C 	C 	0.3456	0.6599	0.2038	0.296
Mof_C 	C 	0.0685	0.4132	0.2112	0.083
Mof_C 	C 	0.0761	0.4713	0.1799	-0.064
Mof_H 	H 	0.1044	0.495	0.1868	0.059
Mof_C 	C 	0.9486	0.3474	0.1455	0.294
Mof_N 	N 	0.222	0.3785	0.4001	-0.071
Mof_N 	N 	0.229	0.5097	0.2512	-0.091
Mof_N 	N 	0.0984	0.3918	0.263	-0.084
Mof_O 	O 	0.31918	0.2473	0.55792	-0.26
Mof_O 	O 	0.37832	0.3254	0.583	-0.26
Mof_O 	O 	0.38627	0.6812	0.2143	-0.254
Mof_O 	O 	0.315	0.682	0.1683	-0.264
Mof_O 	O 	0.9435	0.3012	0.1779	-0.262
Mof_O 	O 	0.9191	0.364	0.1063	-0.25
Mof_C 	C 	0.9999	0.4591	0.1283	-0.036
Mof_H 	H 	0.9767	0.4747	0.1002	0.047
Mof_C 	C 	0.9923	0.4011	0.1596	0.021
Mof_C 	C 	0.0266	0.3781	0.2011	-0.027
Mof_H 	H 	0.0215	0.3389	0.2222	0.05
Mof_C 	C 	0.0418	0.4942	0.1384	-0.023
Mof_H 	H 	0.0469	0.5334	0.1173	0.035
Mof_C 	C 	0.3347	0.6218	0.2492	-0.034
Mof_C 	C 	0.2891	0.5966	0.2385	-0.061
Mof_H 	H 	0.267	0.6197	0.2123	0.054
Mof_C 	C 	0.2877	0.3271	0.4639	-0.034
Mof_H 	H 	0.275	0.278	0.4635	0.071
Mof_C 	C 	0.2706	0.3793	0.427	0.052
Mof_C 	C 	0.3054	0.4119	0.4059	0.008
Mof_H 	H 	0.2977	0.4298	0.3726	0.029
Mof_C 	C 	0.3522	0.4165	0.4371	-0.045
Mof_H 	H 	0.3744	0.4373	0.4236	0.045
Mof_C 	C 	0.3643	0.3885	0.4893	-0.053
Mof_H 	H 	0.3933	0.3924	0.5111	0.056
Mof_C 	C 	0.3252	0.3524	0.5047	-0.01
Mof_C 	C 	0.2822	0.4965	0.2509	0.057
Mof_C 	C 	0.3176	0.4577	0.2868	-0.046
Mof_H 	H 	0.3111	0.4153	0.3047	0.046
Mof_C 	C 	0.363	0.4834	0.2956	-0.024
Mof_H 	H 	0.3862	0.4579	0.3192	0.034
Mof_C 	C 	0.3729	0.5479	0.2684	-0.041
Mof_H 	H 	0.4027	0.5648	0.2741	0.05
Mof_C 	C 	0.0747	0.3799	0.2029	0.02
Mof_C 	C 	0.0866	0.4296	0.1641	-0.045
Mof_H 	H 	0.1158	0.4481	0.1678	0.054
Mof_N 	N 	0.2293	0.3441	0.3886	-0.081
Mof_N 	N 	0.2376	0.4698	0.238	-0.081
Mof_N 	N 	0.104	0.3568	0.2508	-0.072
Mof_C 	C 	0.0078	0.4188	0.1097	-0.027
Mof_H 	H 	0.9859	0.4288	0.0794	0.044
Mof_C 	C 	0.9988	0.3716	0.1486	-0.039
Mof_C 	C 	0.0325	0.347	0.191	-0.048
Mof_H 	H 	0.0263	0.3078	0.2115	0.056
Mof_C 	C 	0.049	0.4473	0.1196	0.006
Mof_H 	H 	0.0548	0.4819	0.096	0.026
Mof_C 	C 	0.3375	0.5867	0.2325	0.007
Mof_C 	C 	0.2922	0.561	0.2237	-0.015
Mof_H 	H 	0.2689	0.5864	0.2001	0.042
Mof_C 	C 	0.2827	0.3513	0.4793	-0.071
Mof_H 	H 	0.2606	0.3332	0.4939	0.08
Mof_Cd	Cd	0.62921	0.23703	0.85651	0.488
Mof_C 	C 	0.71198	0.0491	0.773	0.206
Mof_N 	N 	0.7316	0.0738	0.8208	-0.172
Mof_C 	C 	0.70752	0.1163	0.84574	0.202
Mof_N 	N 	0.66382	0.134	0.8229	-0.174
Mof_C 	C 	0.64419	0.1094	0.7751	0.207
Mof_N 	N 	0.66828	0.0669	0.75018	-0.163
Mof_C 	C 	0.7691	0.1206	0.9268	0.047
Mof_C 	C 	0.7914	0.0474	0.9213	-0.114
Mof_H 	H 	0.7804	0.0157	0.8931	0.079
Mof_C 	C 	0.8306	0.0265	0.9609	0.007
Mof_H 	H 	0.8446	0.9789	0.96	0.031
Mof_C 	C 	0.8484	0.0789	0.002	-0.008
Mof_H 	H 	0.874	0.0653	0.0278	0.044
Mof_C 	C 	0.827	0.1521	0.0035	-0.002
Mof_C 	C 	0.8423	0.1982	0.052	0.288
Mof_C 	C 	0.7772	0.9636	0.7676	0.049
Mof_C 	C 	0.8109	0.9986	0.8074	-0.059
Mof_H 	H 	0.803	0.0382	0.8266	0.05
Mof_C 	C 	0.8565	0.9735	0.8181	-0.002
Mof_H 	H 	0.8786	0.9965	0.8443	0.024
Mof_C 	C 	0.8684	0.9133	0.789	-0.011
Mof_H 	H 	0.8983	0.8968	0.796	0.038
Mof_C 	C 	0.8456	0.8401	0.7038	0.296
Mof_C 	C 	0.5685	0.0868	0.7112	0.083
Mof_C 	C 	0.5761	0.0287	0.6799	-0.064
Mof_H 	H 	0.6044	0.005	0.6868	0.059
Mof_C 	C 	0.4486	0.1526	0.6455	0.294
Mof_N 	N 	0.722	0.1215	0.9001	-0.071
Mof_N 	N 	0.729	0.9903	0.7512	-0.091
Mof_N 	N 	0.5984	0.1082	0.763	-0.084
Mof_O 	O 	0.81918	0.2527	0.05792	-0.26
Mof_O 	O 	0.87832	0.1746	0.083	-0.26
Mof_O 	O 	0.88627	0.8188	0.7143	-0.254
Mof_O 	O 	0.815	0.818	0.6683	-0.264
Mof_O 	O 	0.4435	0.1988	0.6779	-0.262
Mof_O 	O 	0.4191	0.136	0.6063	-0.25
Mof_C 	C 	0.4999	0.0409	0.6283	-0.036
Mof_H 	H 	0.4767	0.0253	0.6002	0.047
Mof_C 	C 	0.4923	0.0989	0.6596	0.021
Mof_C 	C 	0.5266	0.1219	0.7011	-0.027
Mof_H 	H 	0.5215	0.1611	0.7222	0.05
Mof_C 	C 	0.5418	0.0058	0.6384	-0.023
Mof_H 	H 	0.5469	0.9666	0.6173	0.035
Mof_C 	C 	0.8347	0.8782	0.7492	-0.034
Mof_C 	C 	0.7891	0.9034	0.7385	-0.061
Mof_H 	H 	0.767	0.8803	0.7123	0.054
Mof_C 	C 	0.7877	0.1729	0.9639	-0.034
Mof_H 	H 	0.775	0.222	0.9635	0.071
Mof_C 	C 	0.7706	0.1207	0.927	0.052
Mof_C 	C 	0.8054	0.0881	0.9059	0.009
Mof_H 	H 	0.7977	0.0702	0.8726	0.029
Mof_C 	C 	0.8522	0.0835	0.9371	-0.045
Mof_H 	H 	0.8744	0.0627	0.9236	0.045
Mof_C 	C 	0.8643	0.1115	0.9893	-0.053
Mof_H 	H 	0.8933	0.1076	0.0111	0.056
Mof_C 	C 	0.8252	0.1476	0.0047	-0.01
Mof_C 	C 	0.7822	0.0035	0.7509	0.056
Mof_C 	C 	0.8176	0.0423	0.7868	-0.046
Mof_H 	H 	0.8111	0.0847	0.8047	0.046
Mof_C 	C 	0.863	0.0166	0.7956	-0.024
Mof_H 	H 	0.8862	0.0421	0.8192	0.034
Mof_C 	C 	0.8729	0.9521	0.7684	-0.041
Mof_H 	H 	0.9027	0.9352	0.7741	0.05
Mof_C 	C 	0.5747	0.1201	0.7029	0.02
Mof_C 	C 	0.5866	0.0704	0.6641	-0.045
Mof_H 	H 	0.6158	0.0519	0.6678	0.054
Mof_N 	N 	0.7293	0.1559	0.8886	-0.081
Mof_N 	N 	0.7376	0.0302	0.738	-0.081
Mof_N 	N 	0.604	0.1432	0.7508	-0.072
Mof_C 	C 	0.5078	0.0812	0.6097	-0.027
Mof_H 	H 	0.4859	0.0712	0.5794	0.044
Mof_C 	C 	0.4988	0.1284	0.6486	-0.039
Mof_C 	C 	0.5325	0.153	0.691	-0.048
Mof_H 	H 	0.5263	0.1922	0.7115	0.056
Mof_C 	C 	0.549	0.0527	0.6196	0.006
Mof_H 	H 	0.5548	0.0181	0.596	0.026
Mof_C 	C 	0.8375	0.9133	0.7325	0.007
Mof_C 	C 	0.7922	0.939	0.7237	-0.015
Mof_H 	H 	0.7689	0.9136	0.7001	0.042
Mof_C 	C 	0.7827	0.1487	0.9793	-0.071
Mof_H 	H 	0.7606	0.1668	0.9939	0.08
Mof_Cd	Cd	0.12921	0.73703	0.85651	0.488
Mof_C 	C 	0.21198	0.5491	0.773	0.206
Mof_N 	N 	0.2316	0.5738	0.8208	-0.172
Mof_C 	C 	0.20752	0.6163	0.84574	0.202
Mof_N 	N 	0.16382	0.634	0.8229	-0.174
Mof_C 	C 	0.14419	0.6094	0.7751	0.207
Mof_N 	N 	0.16828	0.5669	0.75018	-0.163
Mof_C 	C 	0.2691	0.6206	0.9268	0.047
Mof_C 	C 	0.2914	0.5474	0.9213	-0.113
Mof_H 	H 	0.2804	0.5157	0.8931	0.078
Mof_C 	C 	0.3306	0.5265	0.9609	0.006
Mof_H 	H 	0.3446	0.4789	0.96	0.032
Mof_C 	C 	0.3484	0.5789	0.002	-0.008
Mof_H 	H 	0.374	0.5653	0.0278	0.044
Mof_C 	C 	0.327	0.6521	0.0035	-0.002
Mof_C 	C 	0.3423	0.6982	0.052	0.288
Mof_C 	C 	0.2772	0.4636	0.7676	0.049
Mof_C 	C 	0.3109	0.4986	0.8074	-0.059
Mof_H 	H 	0.303	0.5382	0.8266	0.05
Mof_C 	C 	0.3565	0.4735	0.8181	-0.002
Mof_H 	H 	0.3786	0.4965	0.8443	0.024
Mof_C 	C 	0.3684	0.4133	0.789	-0.011
Mof_H 	H 	0.3983	0.3968	0.796	0.038
Mof_C 	C 	0.3456	0.3401	0.7038	0.296
Mof_C 	C 	0.0685	0.5868	0.7112	0.083
Mof_C 	C 	0.0761	0.5287	0.6799	-0.064
Mof_H 	H 	0.1044	0.505	0.6868	0.059
Mof_C 	C 	0.9486	0.6526	0.6455	0.294
Mof_N 	N 	0.222	0.6215	0.9001	-0.071
Mof_N 	N 	0.229	0.4903	0.7512	-0.091
Mof_N 	N 	0.0984	0.6082	0.763	-0.084
Mof_O 	O 	0.31918	0.7527	0.05792	-0.26
Mof_O 	O 	0.37832	0.6746	0.083	-0.26
Mof_O 	O 	0.38627	0.3188	0.7143	-0.254
Mof_O 	O 	0.315	0.318	0.6683	-0.264
Mof_O 	O 	0.9435	0.6988	0.6779	-0.262
Mof_O 	O 	0.9191	0.636	0.6063	-0.25
Mof_C 	C 	0.9999	0.5409	0.6283	-0.036
Mof_H 	H 	0.9767	0.5253	0.6002	0.047
Mof_C 	C 	0.9923	0.5989	0.6596	0.021
Mof_C 	C 	0.0266	0.6219	0.7011	-0.027
Mof_H 	H 	0.0215	0.6611	0.7222	0.05
Mof_C 	C 	0.0418	0.5058	0.6384	-0.023
Mof_H 	H 	0.0469	0.4666	0.6173	0.035
Mof_C 	C 	0.3347	0.3782	0.7492	-0.034
Mof_C 	C 	0.2891	0.4034	0.7385	-0.061
Mof_H 	H 	0.267	0.3803	0.7123	0.054
Mof_C 	C 	0.2877	0.6729	0.9639	-0.034
Mof_H 	H 	0.275	0.722	0.9635	0.071
Mof_C 	C 	0.2706	0.6207	0.927	0.052
Mof_C 	C 	0.3054	0.5881	0.9059	0.008
Mof_H 	H 	0.2977	0.5702	0.8726	0.029
Mof_C 	C 	0.3522	0.5835	0.9371	-0.045
Mof_H 	H 	0.3744	0.5627	0.9236	0.045
Mof_C 	C 	0.3643	0.6115	0.9893	-0.053
Mof_H 	H 	0.3933	0.6076	0.0111	0.056
Mof_C 	C 	0.3252	0.6476	0.0047	-0.01
Mof_C 	C 	0.2822	0.5035	0.7509	0.057
Mof_C 	C 	0.3176	0.5423	0.7868	-0.046
Mof_H 	H 	0.3111	0.5847	0.8047	0.046
Mof_C 	C 	0.363	0.5166	0.7956	-0.024
Mof_H 	H 	0.3862	0.5421	0.8192	0.034
Mof_C 	C 	0.3729	0.4521	0.7684	-0.041
Mof_H 	H 	0.4027	0.4352	0.7741	0.05
Mof_C 	C 	0.0747	0.6201	0.7029	0.02
Mof_C 	C 	0.0866	0.5704	0.6641	-0.045
Mof_H 	H 	0.1158	0.5519	0.6678	0.054
Mof_N 	N 	0.2293	0.6559	0.8886	-0.081
Mof_N 	N 	0.2376	0.5302	0.738	-0.081
Mof_N 	N 	0.104	0.6432	0.7508	-0.072
Mof_C 	C 	0.0078	0.5812	0.6097	-0.027
Mof_H 	H 	0.9859	0.5712	0.5794	0.044
Mof_C 	C 	0.9988	0.6284	0.6486	-0.039
Mof_C 	C 	0.0325	0.653	0.691	-0.048
Mof_H 	H 	0.0263	0.6922	0.7115	0.056
Mof_C 	C 	0.049	0.5527	0.6196	0.006
Mof_H 	H 	0.0548	0.5181	0.596	0.026
Mof_C 	C 	0.3375	0.4133	0.7325	0.007
Mof_C 	C 	0.2922	0.439	0.7237	-0.015
Mof_H 	H 	0.2689	0.4136	0.7001	0.042
Mof_C 	C 	0.2827	0.6487	0.9793	-0.071
Mof_H 	H 	0.2606	0.6668	0.9939	0.08
Mof_Cd	Cd	0.37079	0.23703	0.64349	0.488
Mof_C 	C 	0.28802	0.0491	0.727	0.206
Mof_N 	N 	0.2684	0.0738	0.6792	-0.172
Mof_C 	C 	0.29248	0.1163	0.65426	0.202
Mof_N 	N 	0.33618	0.134	0.6771	-0.174
Mof_C 	C 	0.35581	0.1094	0.7249	0.207
Mof_N 	N 	0.33172	0.0669	0.74982	-0.163
Mof_C 	C 	0.2309	0.1206	0.5732	0.047
Mof_C 	C 	0.2086	0.0474	0.5787	-0.113
Mof_H 	H 	0.2196	0.0157	0.6069	0.079
Mof_C 	C 	0.1694	0.0265	0.5391	0.006
Mof_H 	H 	0.1554	0.9789	0.54	0.032
Mof_C 	C 	0.1516	0.0789	0.498	-0.008
Mof_H 	H 	0.126	0.0653	0.4722	0.044
Mof_C 	C 	0.173	0.1521	0.4965	-0.002
Mof_C 	C 	0.1577	0.1982	0.448	0.288
Mof_C 	C 	0.2228	0.9636	0.7324	0.049
Mof_C 	C 	0.1891	0.9986	0.6926	-0.059
Mof_H 	H 	0.197	0.0382	0.6734	0.05
Mof_C 	C 	0.1435	0.9735	0.6819	-0.002
Mof_H 	H 	0.1214	0.9965	0.6557	0.024
Mof_C 	C 	0.1316	0.9133	0.711	-0.011
Mof_H 	H 	0.1017	0.8968	0.704	0.038
Mof_C 	C 	0.1544	0.8401	0.7962	0.296
Mof_C 	C 	0.4315	0.0868	0.7888	0.083
Mof_C 	C 	0.4239	0.0287	0.8201	-0.064
Mof_H 	H 	0.3956	0.005	0.8132	0.059
Mof_C 	C 	0.5514	0.1526	0.8545	0.294
Mof_N 	N 	0.278	0.1215	0.5999	-0.071
Mof_N 	N 	0.271	0.9903	0.7488	-0.091
Mof_N 	N 	0.4016	0.1082	0.737	-0.084
Mof_O 	O 	0.18082	0.2527	0.44208	-0.26
Mof_O 	O 	0.12168	0.1746	0.417	-0.26
Mof_O 	O 	0.11373	0.8188	0.7857	-0.254
Mof_O 	O 	0.185	0.818	0.8317	-0.264
Mof_O 	O 	0.5565	0.1988	0.8221	-0.262
Mof_O 	O 	0.5809	0.136	0.8937	-0.25
Mof_C 	C 	0.5001	0.0409	0.8717	-0.036
Mof_H 	H 	0.5233	0.0253	0.8998	0.047
Mof_C 	C 	0.5077	0.0989	0.8404	0.021
Mof_C 	C 	0.4734	0.1219	0.7989	-0.027
Mof_H 	H 	0.4785	0.1611	0.7778	0.05
Mof_C 	C 	0.4582	0.0058	0.8616	-0.023
Mof_H 	H 	0.4531	0.9666	0.8827	0.035
Mof_C 	C 	0.1653	0.8782	0.7508	-0.034
Mof_C 	C 	0.2109	0.9034	0.7615	-0.061
Mof_H 	H 	0.233	0.8803	0.7877	0.054
Mof_C 	C 	0.2123	0.1729	0.5361	-0.034
Mof_H 	H 	0.225	0.222	0.5365	0.071
Mof_C 	C 	0.2294	0.1207	0.573	0.052
Mof_C 	C 	0.1946	0.0881	0.5941	0.008
Mof_H 	H 	0.2023	0.0702	0.6274	0.029
Mof_C 	C 	0.1478	0.0835	0.5629	-0.045
Mof_H 	H 	0.1256	0.0627	0.5764	0.045
Mof_C 	C 	0.1357	0.1115	0.5107	-0.053
Mof_H 	H 	0.1067	0.1076	0.4889	0.056
Mof_C 	C 	0.1748	0.1476	0.4953	-0.01
Mof_C 	C 	0.2178	0.0035	0.7491	0.056
Mof_C 	C 	0.1824	0.0423	0.7132	-0.046
Mof_H 	H 	0.1889	0.0847	0.6953	0.046
Mof_C 	C 	0.137	0.0166	0.7044	-0.024
Mof_H 	H 	0.1138	0.0421	0.6808	0.034
Mof_C 	C 	0.1271	0.9521	0.7316	-0.041
Mof_H 	H 	0.0973	0.9352	0.7259	0.05
Mof_C 	C 	0.4253	0.1201	0.7971	0.02
Mof_C 	C 	0.4134	0.0704	0.8359	-0.045
Mof_H 	H 	0.3842	0.0519	0.8322	0.054
Mof_N 	N 	0.2707	0.1559	0.6114	-0.081
Mof_N 	N 	0.2624	0.0302	0.762	-0.081
Mof_N 	N 	0.396	0.1432	0.7492	-0.072
Mof_C 	C 	0.4922	0.0812	0.8903	-0.027
Mof_H 	H 	0.5141	0.0712	0.9206	0.044
Mof_C 	C 	0.5012	0.1284	0.8514	-0.039
Mof_C 	C 	0.4675	0.153	0.809	-0.049
Mof_H 	H 	0.4737	0.1922	0.7885	0.056
Mof_C 	C 	0.451	0.0527	0.8804	0.006
Mof_H 	H 	0.4452	0.0181	0.904	0.026
Mof_C 	C 	0.1625	0.9133	0.7675	0.007
Mof_C 	C 	0.2078	0.939	0.7763	-0.015
Mof_H 	H 	0.2311	0.9136	0.7999	0.042
Mof_C 	C 	0.2173	0.1487	0.5207	-0.071
Mof_H 	H 	0.2394	0.1668	0.5061	0.08
Mof_Cd	Cd	0.87079	0.73703	0.64349	0.488
Mof_C 	C 	0.78802	0.5491	0.727	0.206
Mof_N 	N 	0.7684	0.5738	0.6792	-0.172
Mof_C 	C 	0.79248	0.6163	0.65426	0.202
Mof_N 	N 	0.83618	0.634	0.6771	-0.174
Mof_C 	C 	0.85581	0.6094	0.7249	0.207
Mof_N 	N 	0.83172	0.5669	0.74982	-0.163
Mof_C 	C 	0.7309	0.6206	0.5732	0.047
Mof_C 	C 	0.7086	0.5474	0.5787	-0.113
Mof_H 	H 	0.7196	0.5157	0.6069	0.078
Mof_C 	C 	0.6694	0.5265	0.5391	0.006
Mof_H 	H 	0.6554	0.4789	0.54	0.032
Mof_C 	C 	0.6516	0.5789	0.498	-0.008
Mof_H 	H 	0.626	0.5653	0.4722	0.044
Mof_C 	C 	0.673	0.6521	0.4965	-0.002
Mof_C 	C 	0.6577	0.6982	0.448	0.288
Mof_C 	C 	0.7228	0.4636	0.7324	0.049
Mof_C 	C 	0.6891	0.4986	0.6926	-0.059
Mof_H 	H 	0.697	0.5382	0.6734	0.05
Mof_C 	C 	0.6435	0.4735	0.6819	-0.002
Mof_H 	H 	0.6214	0.4965	0.6557	0.024
Mof_C 	C 	0.6316	0.4133	0.711	-0.011
Mof_H 	H 	0.6017	0.3968	0.704	0.038
Mof_C 	C 	0.6544	0.3401	0.7962	0.296
Mof_C 	C 	0.9315	0.5868	0.7888	0.083
Mof_C 	C 	0.9239	0.5287	0.8201	-0.064
Mof_H 	H 	0.8956	0.505	0.8132	0.059
Mof_C 	C 	0.0514	0.6526	0.8545	0.294
Mof_N 	N 	0.778	0.6215	0.5999	-0.071
Mof_N 	N 	0.771	0.4903	0.7488	-0.091
Mof_N 	N 	0.9016	0.6082	0.737	-0.084
Mof_O 	O 	0.68082	0.7527	0.44208	-0.26
Mof_O 	O 	0.62168	0.6746	0.417	-0.26
Mof_O 	O 	0.61373	0.3188	0.7857	-0.254
Mof_O 	O 	0.685	0.318	0.8317	-0.264
Mof_O 	O 	0.0565	0.6988	0.8221	-0.262
Mof_O 	O 	0.0809	0.636	0.8937	-0.25
Mof_C 	C 	0.0001	0.5409	0.8717	-0.036
Mof_H 	H 	0.0233	0.5253	0.8998	0.047
Mof_C 	C 	0.0077	0.5989	0.8404	0.021
Mof_C 	C 	0.9734	0.6219	0.7989	-0.027
Mof_H 	H 	0.9785	0.6611	0.7778	0.05
Mof_C 	C 	0.9582	0.5058	0.8616	-0.023
Mof_H 	H 	0.9531	0.4666	0.8827	0.035
Mof_C 	C 	0.6653	0.3782	0.7508	-0.034
Mof_C 	C 	0.7109	0.4034	0.7615	-0.061
Mof_H 	H 	0.733	0.3803	0.7877	0.054
Mof_C 	C 	0.7123	0.6729	0.5361	-0.034
Mof_H 	H 	0.725	0.722	0.5365	0.071
Mof_C 	C 	0.7294	0.6207	0.573	0.052
Mof_C 	C 	0.6946	0.5881	0.5941	0.008
Mof_H 	H 	0.7023	0.5702	0.6274	0.029
Mof_C 	C 	0.6478	0.5835	0.5629	-0.045
Mof_H 	H 	0.6256	0.5627	0.5764	0.045
Mof_C 	C 	0.6357	0.6115	0.5107	-0.053
Mof_H 	H 	0.6067	0.6076	0.4889	0.056
Mof_C 	C 	0.6748	0.6476	0.4953	-0.01
Mof_C 	C 	0.7178	0.5035	0.7491	0.057
Mof_C 	C 	0.6824	0.5423	0.7132	-0.046
Mof_H 	H 	0.6889	0.5847	0.6953	0.046
Mof_C 	C 	0.637	0.5166	0.7044	-0.024
Mof_H 	H 	0.6138	0.5421	0.6808	0.034
Mof_C 	C 	0.6271	0.4521	0.7316	-0.041
Mof_H 	H 	0.5973	0.4352	0.7259	0.05
Mof_C 	C 	0.9253	0.6201	0.7971	0.02
Mof_C 	C 	0.9134	0.5704	0.8359	-0.045
Mof_H 	H 	0.8842	0.5519	0.8322	0.054
Mof_N 	N 	0.7707	0.6559	0.6114	-0.081
Mof_N 	N 	0.7624	0.5302	0.762	-0.081
Mof_N 	N 	0.896	0.6432	0.7492	-0.072
Mof_C 	C 	0.9922	0.5812	0.8903	-0.027
Mof_H 	H 	0.0141	0.5712	0.9206	0.044
Mof_C 	C 	0.0012	0.6284	0.8514	-0.039
Mof_C 	C 	0.9675	0.653	0.809	-0.048
Mof_H 	H 	0.9737	0.6922	0.7885	0.056
Mof_C 	C 	0.951	0.5527	0.8804	0.006
Mof_H 	H 	0.9452	0.5181	0.904	0.026
Mof_C 	C 	0.6625	0.4133	0.7675	0.007
Mof_C 	C 	0.7078	0.439	0.7763	-0.015
Mof_H 	H 	0.7311	0.4136	0.7999	0.042
Mof_C 	C 	0.7173	0.6487	0.5207	-0.071
Mof_H 	H 	0.7394	0.6668	0.5061	0.08
_end
