data_functionalizedCrystal
_audit_creation_method	'EQeq! by Chris Wilmer'
_symmetry_space_group_name_H-M	'P1'
_symmetry_Int_Tables_number	1
_symmetry_cell_setting	triclinic
loop_
_symmetry_equiv_pos_as_xyz
  x,y,z
_cell_length_a	32
_cell_length_b	32
_cell_length_c	33.04
_cell_angle_alpha	90
_cell_angle_beta	90
_cell_angle_gamma	120
loop_
_atom_site_label
_atom_site_type_symbol
_atom_site_fract_x
_atom_site_fract_y
_atom_site_fract_z
_atom_site_charge
Mof_Fe	Fe	0.6572	0.8544	0.0344	2.199
Mof_O 	O 	0.12249	0.27244	0.15324	-0.514
Mof_O 	O 	0.06699	0.26739	0.11018	-0.543
Mof_O 	O 	0.84922	0.14102	0.99585	-0.538
Mof_O 	O 	0.77991	0.08012	0.97149	-0.53
Mof_O 	O 	0.73173	0.92565	0.10956	-0.518
Mof_O 	O 	0.70526	0.9249	0.04683	-0.52
Mof_O 	O 	0.64493	0.88162	0.98053	-0.276
Mof_C 	C 	0.0814	0.25	0.1364	0.477
Mof_C 	C 	0.8136	0.0982	0.9971	0.472
Mof_C 	C 	0.7337	0.9441	0.0759	0.465
Mof_O 	O 	0.0141	0.0584	0.2247	-0.295
Mof_C 	C 	0.0298	0.1295	0.1896	-0.113
Mof_C 	C 	0.0627	0.1758	0.1766	0.001
Mof_H 	H 	0.0957	0.1903	0.1843	0.03
Mof_C 	C 	0.0474	0.2011	0.1523	-0.054
Mof_C 	C 	0.9992	0.18	0.141	-0.125
Mof_H 	H 	0.9888	0.1973	0.1244	0.087
Mof_C 	C 	0.9663	0.1336	0.1541	0.119
Mof_C 	C 	0.9816	0.1084	0.1783	-0.059
Mof_H 	H 	0.9591	0.0767	0.1872	0.066
Mof_C 	C 	0.9144	0.1084	0.1403	-0.175
Mof_H 	H 	0.8933	0.0941	0.1642	0.069
Mof_H 	H 	0.9073	0.1326	0.1286	-0.076
Mof_C 	C 	0.9021	0.0691	0.1095	-0.09
Mof_H 	H 	0.8994	0.0407	0.1239	0.053
Mof_H 	H 	0.9296	0.0805	0.0905	0.161
Mof_C 	C 	0.8568	0.0526	0.0849	0.036
Mof_C 	C 	0.856	0.081	0.0535	-0.003
Mof_H 	H 	0.8832	0.112	0.0488	0.026
Mof_C 	C 	0.8155	0.0642	0.0289	-0.075
Mof_C 	C 	0.7757	0.0189	0.0358	0.022
Mof_H 	H 	0.748	0.0074	0.0189	0.023
Mof_C 	C 	0.7762	0.9903	0.0672	0.005
Mof_C 	C 	0.8169	0.0073	0.0916	0.028
Mof_H 	H 	0.8173	0.9878	0.1131	0.003
Mof_O 	O 	0.08895	0.12595	0.2295	-0.431
Mof_H 	H 	0.0967	0.1079	0.2418	0.199
Mof_C 	C 	0.0498	0.1001	0.2097	0.439
Mof_O 	O 	0.039	0.057	0.2011	-0.216
Mof_C 	C 	0.0373	0.1254	0.1802	0.022
Mof_C 	C 	0.065	0.1747	0.173	0.02
Mof_H 	H 	0.0947	0.1933	0.1869	0.024
Mof_C 	C 	0.0493	0.1967	0.1454	-0.039
Mof_C 	C 	0.0058	0.1694	0.1251	0.05
Mof_H 	H 	0.9951	0.1844	0.1062	0.019
Mof_C 	C 	0.9781	0.1201	0.1323	-0.004
Mof_C 	C 	0.9939	0.0981	0.1598	-0.001
Mof_H 	H 	0.975	0.0644	0.1648	0.047
Mof_C 	C 	0.9326	0.0902	0.1083	-0.209
Mof_H 	H 	0.9376	0.1033	0.0804	0.011
Mof_H 	H 	0.9267	0.0568	0.1064	0.037
Mof_C 	C 	0.8882	0.0885	0.1257	0.11
Mof_H 	H 	0.8791	0.0698	0.1512	-0.004
Mof_H 	H 	0.8956	0.1217	0.1321	0.144
Mof_C 	C 	0.8465	0.0659	0.0964	-0.05
Mof_C 	C 	0.848	0.0928	0.0629	-0.013
Mof_H 	H 	0.8731	0.1254	0.0604	0.042
Mof_C 	C 	0.8127	0.0722	0.0332	-0.031
Mof_C 	C 	0.7759	0.0245	0.0369	0.005
Mof_H 	H 	0.7518	0.0103	0.0166	0.025
Mof_C 	C 	0.7745	0.9974	0.0704	-0.085
Mof_C 	C 	0.8098	0.0182	0.1001	-0.073
Mof_H 	H 	0.8088	0.9997	0.123	0.075
Mof_Co	Co	0.655	0.855	0.033	-0.441
Mof_Fe	Fe	0.32387	0.18773	0.36773	2.198
Mof_O 	O 	0.78916	0.60577	0.48657	-0.516
Mof_O 	O 	0.73366	0.60072	0.44351	-0.542
Mof_O 	O 	0.51589	0.47435	0.32918	-0.54
Mof_O 	O 	0.44658	0.41345	0.30482	-0.531
Mof_O 	O 	0.3984	0.25898	0.44289	-0.52
Mof_O 	O 	0.37193	0.25823	0.38016	-0.523
Mof_O 	O 	0.3116	0.21495	0.31386	-0.277
Mof_C 	C 	0.74807	0.58333	0.46973	0.481
Mof_C 	C 	0.48027	0.43153	0.33043	0.475
Mof_C 	C 	0.40037	0.27743	0.40923	0.468
Mof_O 	O 	0.68077	0.39173	0.55803	-0.3
Mof_C 	C 	0.69647	0.46283	0.52293	0.069
Mof_C 	C 	0.72937	0.50913	0.50993	0.012
Mof_H 	H 	0.76237	0.52363	0.51763	0.029
Mof_C 	C 	0.71407	0.53443	0.48563	-0.064
Mof_C 	C 	0.66587	0.51333	0.47433	-0.177
Mof_H 	H 	0.65547	0.53063	0.45773	0.113
Mof_C 	C 	0.63297	0.46693	0.48743	-0.092
Mof_C 	C 	0.64827	0.44173	0.51163	0.354
Mof_H 	H 	0.62577	0.41003	0.52053	-0.065
Mof_C 	C 	0.58107	0.44173	0.47363	-0.135
Mof_H 	H 	0.55997	0.42743	0.49753	0.053
Mof_H 	H 	0.57397	0.46593	0.46193	-0.178
Mof_C 	C 	0.56877	0.40243	0.44283	-0.289
Mof_H 	H 	0.56607	0.37403	0.45723	0.108
Mof_H 	H 	0.59627	0.41383	0.42383	0.184
Mof_C 	C 	0.52347	0.38593	0.41823	0.125
Mof_C 	C 	0.52267	0.41433	0.38683	0.057
Mof_H 	H 	0.54987	0.44533	0.38213	0.005
Mof_C 	C 	0.48217	0.39753	0.36223	-0.061
Mof_C 	C 	0.44237	0.35223	0.36913	0.027
Mof_H 	H 	0.41467	0.34073	0.35223	0.022
Mof_C 	C 	0.44287	0.32363	0.40053	-0.001
Mof_C 	C 	0.48357	0.34063	0.42493	0.067
Mof_H 	H 	0.48397	0.32113	0.44643	-0.019
Mof_O 	O 	0.75562	0.45928	0.56283	-0.435
Mof_H 	H 	0.76337	0.44123	0.57513	0.2
Mof_C 	C 	0.71647	0.43343	0.54303	0.452
Mof_O 	O 	0.70567	0.39033	0.53443	-0.206
Mof_C 	C 	0.70397	0.45873	0.51353	-0.135
Mof_C 	C 	0.73167	0.50803	0.50633	0.007
Mof_H 	H 	0.76137	0.52663	0.52023	0.027
Mof_C 	C 	0.71597	0.53003	0.47873	-0.032
Mof_C 	C 	0.67247	0.50273	0.45843	0.141
Mof_H 	H 	0.66177	0.51773	0.43953	-0.021
Mof_C 	C 	0.64477	0.45343	0.46563	0.148
Mof_C 	C 	0.66057	0.43143	0.49313	-0.435
Mof_H 	H 	0.64167	0.39773	0.49813	0.191
Mof_C 	C 	0.59927	0.42353	0.44163	-0.124
Mof_H 	H 	0.60427	0.43663	0.41373	-0.019
Mof_H 	H 	0.59337	0.39013	0.43973	0.034
Mof_C 	C 	0.55487	0.42183	0.45903	0.189
Mof_H 	H 	0.54577	0.40313	0.48453	-0.017
Mof_H 	H 	0.56227	0.45503	0.46543	0.225
Mof_C 	C 	0.51317	0.39923	0.42973	-0.116
Mof_C 	C 	0.51467	0.42613	0.39623	-0.074
Mof_H 	H 	0.53977	0.45873	0.39373	0.07
Mof_C 	C 	0.47937	0.40553	0.36653	-0.048
Mof_C 	C 	0.44257	0.35783	0.37023	0.011
Mof_H 	H 	0.41847	0.34363	0.34993	0.026
Mof_C 	C 	0.44117	0.33073	0.40373	-0.099
Mof_C 	C 	0.47647	0.35153	0.43343	-0.098
Mof_H 	H 	0.47547	0.33303	0.45633	0.085
Mof_Co	Co	0.32167	0.18833	0.36633	-0.441
Mof_Fe	Fe	0.99053	0.52107	0.70107	2.192
Mof_O 	O 	0.45582	0.93911	0.81991	-0.512
Mof_O 	O 	0.40032	0.93406	0.77685	-0.537
Mof_O 	O 	0.18255	0.80769	0.66252	-0.54
Mof_O 	O 	0.11324	0.74679	0.63816	-0.532
Mof_O 	O 	0.06506	0.59232	0.77623	-0.522
Mof_O 	O 	0.03859	0.59157	0.7135	-0.528
Mof_O 	O 	0.97826	0.54829	0.6472	-0.272
Mof_C 	C 	0.41473	0.91667	0.80307	0.48
Mof_C 	C 	0.14693	0.76487	0.66377	0.475
Mof_C 	C 	0.06703	0.61077	0.74257	0.469
Mof_O 	O 	0.34743	0.72507	0.89137	-0.3
Mof_C 	C 	0.36313	0.79617	0.85627	0.069
Mof_C 	C 	0.39603	0.84247	0.84327	0.012
Mof_H 	H 	0.42903	0.85697	0.85097	0.029
Mof_C 	C 	0.38073	0.86777	0.81897	-0.064
Mof_C 	C 	0.33253	0.84667	0.80767	-0.178
Mof_H 	H 	0.32213	0.86397	0.79107	0.115
Mof_C 	C 	0.29963	0.80027	0.82077	-0.09
Mof_C 	C 	0.31493	0.77507	0.84497	0.355
Mof_H 	H 	0.29243	0.74337	0.85387	-0.066
Mof_C 	C 	0.24773	0.77507	0.80697	-0.135
Mof_H 	H 	0.22663	0.76077	0.83087	0.054
Mof_H 	H 	0.24063	0.79927	0.79527	-0.177
Mof_C 	C 	0.23543	0.73577	0.77617	-0.287
Mof_H 	H 	0.23273	0.70737	0.79057	0.108
Mof_H 	H 	0.26293	0.74717	0.75717	0.183
Mof_C 	C 	0.19013	0.71927	0.75157	0.125
Mof_C 	C 	0.18933	0.74767	0.72017	0.057
Mof_H 	H 	0.21653	0.77867	0.71547	0.005
Mof_C 	C 	0.14883	0.73087	0.69557	-0.062
Mof_C 	C 	0.10903	0.68557	0.70247	0.027
Mof_H 	H 	0.08133	0.67407	0.68557	0.021
Mof_C 	C 	0.10953	0.65697	0.73387	-0.002
Mof_C 	C 	0.15023	0.67397	0.75827	0.066
Mof_H 	H 	0.15063	0.65447	0.77977	-0.019
Mof_O 	O 	0.42228	0.79262	0.89617	-0.434
Mof_H 	H 	0.43003	0.77457	0.90847	0.2
Mof_C 	C 	0.38313	0.76677	0.87637	0.451
Mof_O 	O 	0.37233	0.72367	0.86777	-0.206
Mof_C 	C 	0.37063	0.79207	0.84687	-0.135
Mof_C 	C 	0.39833	0.84137	0.83967	0.007
Mof_H 	H 	0.42803	0.85997	0.85357	0.027
Mof_C 	C 	0.38263	0.86337	0.81207	-0.031
Mof_C 	C 	0.33913	0.83607	0.79177	0.142
Mof_H 	H 	0.32843	0.85107	0.77287	-0.021
Mof_C 	C 	0.31143	0.78677	0.79897	0.147
Mof_C 	C 	0.32723	0.76477	0.82647	-0.436
Mof_H 	H 	0.30833	0.73107	0.83147	0.191
Mof_C 	C 	0.26593	0.75687	0.77497	-0.124
Mof_H 	H 	0.27093	0.76997	0.74707	-0.019
Mof_H 	H 	0.26003	0.72347	0.77307	0.033
Mof_C 	C 	0.22153	0.75517	0.79237	0.188
Mof_H 	H 	0.21243	0.73647	0.81787	-0.017
Mof_H 	H 	0.22893	0.78837	0.79877	0.226
Mof_C 	C 	0.17983	0.73257	0.76307	-0.116
Mof_C 	C 	0.18133	0.75947	0.72957	-0.074
Mof_H 	H 	0.20643	0.79207	0.72707	0.07
Mof_C 	C 	0.14603	0.73887	0.69987	-0.048
Mof_C 	C 	0.10923	0.69117	0.70357	0.011
Mof_H 	H 	0.08513	0.67697	0.68327	0.025
Mof_C 	C 	0.10783	0.66407	0.73707	-0.099
Mof_C 	C 	0.14313	0.68487	0.76677	-0.098
Mof_H 	H 	0.14213	0.66637	0.78967	0.085
Mof_Co	Co	0.98833	0.52167	0.69967	-0.432
Mof_Fe	Fe	0.1456	0.8028	0.0344	2.198
Mof_O 	O 	0.72756	0.85005	0.15324	-0.515
Mof_O 	O 	0.73261	0.7996	0.11018	-0.542
Mof_O 	O 	0.85898	0.7082	0.99585	-0.54
Mof_O 	O 	0.91988	0.69979	0.97149	-0.53
Mof_O 	O 	0.07435	0.80608	0.10956	-0.523
Mof_O 	O 	0.0751	0.78036	0.04683	-0.527
Mof_O 	O 	0.11838	0.76331	0.98053	-0.278
Mof_C 	C 	0.75	0.8314	0.1364	0.481
Mof_C 	C 	0.9018	0.7154	0.9971	0.477
Mof_C 	C 	0.0559	0.7896	0.0759	0.474
Mof_O 	O 	0.9416	0.9557	0.2247	-0.292
Mof_C 	C 	0.8705	0.9003	0.1896	0.066
Mof_C 	C 	0.8242	0.8869	0.1766	0.012
Mof_H 	H 	0.8097	0.9054	0.1843	0.029
Mof_C 	C 	0.7989	0.8463	0.1523	-0.062
Mof_C 	C 	0.82	0.8192	0.141	-0.173
Mof_H 	H 	0.8027	0.7915	0.1244	0.111
Mof_C 	C 	0.8664	0.8327	0.1541	-0.083
Mof_C 	C 	0.8916	0.8732	0.1783	0.334
Mof_H 	H 	0.9233	0.8824	0.1872	-0.057
Mof_C 	C 	0.8916	0.806	0.1403	-0.14
Mof_H 	H 	0.9059	0.7992	0.1642	0.055
Mof_H 	H 	0.8674	0.7747	0.1286	-0.183
Mof_C 	C 	0.9309	0.833	0.1095	-0.286
Mof_H 	H 	0.9593	0.8587	0.1239	0.112
Mof_H 	H 	0.9195	0.8491	0.0905	0.189
Mof_C 	C 	0.9474	0.8042	0.0849	0.124
Mof_C 	C 	0.919	0.775	0.0535	0.06
Mof_H 	H 	0.888	0.7712	0.0488	0.005
Mof_C 	C 	0.9358	0.7513	0.0289	-0.063
Mof_C 	C 	0.9811	0.7568	0.0358	0.032
Mof_H 	H 	0.9926	0.7406	0.0189	0.021
Mof_C 	C 	0.0097	0.7859	0.0672	-0.016
Mof_C 	C 	0.9927	0.8096	0.0916	0.081
Mof_H 	H 	0.0122	0.8295	0.1131	-0.023
Mof_O 	O 	0.87405	0.963	0.2295	-0.436
Mof_H 	H 	0.8921	0.9888	0.2418	0.211
Mof_C 	C 	0.8999	0.9497	0.2097	0.448
Mof_O 	O 	0.943	0.982	0.2011	-0.195
Mof_C 	C 	0.8746	0.9119	0.1802	-0.128
Mof_C 	C 	0.8253	0.8903	0.173	0.007
Mof_H 	H 	0.8067	0.9014	0.1869	0.028
Mof_C 	C 	0.8033	0.8526	0.1454	-0.033
Mof_C 	C 	0.8306	0.8364	0.1251	0.134
Mof_H 	H 	0.8156	0.8107	0.1062	-0.017
Mof_C 	C 	0.8799	0.858	0.1323	0.149
Mof_C 	C 	0.9019	0.8958	0.1598	-0.418
Mof_H 	H 	0.9356	0.9106	0.1648	0.189
Mof_C 	C 	0.9098	0.8424	0.1083	-0.135
Mof_H 	H 	0.8967	0.8343	0.0804	-0.017
Mof_H 	H 	0.9432	0.8699	0.1064	0.037
Mof_C 	C 	0.9115	0.7997	0.1257	0.195
Mof_H 	H 	0.9302	0.8093	0.1512	-0.017
Mof_H 	H 	0.8783	0.7739	0.1321	0.231
Mof_C 	C 	0.9341	0.7806	0.0964	-0.125
Mof_C 	C 	0.9072	0.7552	0.0629	-0.071
Mof_H 	H 	0.8746	0.7477	0.0604	0.069
Mof_C 	C 	0.9278	0.7405	0.0332	-0.05
Mof_C 	C 	0.9755	0.7514	0.0369	0.02
Mof_H 	H 	0.9897	0.7415	0.0166	0.027
Mof_C 	C 	0.0026	0.7771	0.0704	-0.107
Mof_C 	C 	0.9818	0.7916	0.1001	-0.081
Mof_H 	H 	0.0003	0.8091	0.123	0.073
Mof_Co	Co	0.145	0.8	0.033	-0.441
Mof_Fe	Fe	0.81227	0.13613	0.36773	2.198
Mof_O 	O 	0.39423	0.18338	0.48657	-0.516
Mof_O 	O 	0.39928	0.13293	0.44351	-0.543
Mof_O 	O 	0.52565	0.04153	0.32918	-0.543
Mof_O 	O 	0.58655	0.03312	0.30482	-0.534
Mof_O 	O 	0.74102	0.13941	0.44289	-0.521
Mof_O 	O 	0.74177	0.11369	0.38016	-0.524
Mof_O 	O 	0.78505	0.09664	0.31386	-0.279
Mof_C 	C 	0.41667	0.16473	0.46973	0.481
Mof_C 	C 	0.56847	0.04873	0.33043	0.475
Mof_C 	C 	0.72257	0.12293	0.40923	0.468
Mof_O 	O 	0.60827	0.28903	0.55803	-0.3
Mof_C 	C 	0.53717	0.23363	0.52293	0.074
Mof_C 	C 	0.49087	0.22023	0.50993	0.012
Mof_H 	H 	0.47637	0.23873	0.51763	0.029
Mof_C 	C 	0.46557	0.17963	0.48563	-0.065
Mof_C 	C 	0.48667	0.15253	0.47433	-0.182
Mof_H 	H 	0.46937	0.12483	0.45773	0.114
Mof_C 	C 	0.53307	0.16603	0.48743	-0.097
Mof_C 	C 	0.55827	0.20653	0.51163	0.364
Mof_H 	H 	0.58997	0.21573	0.52053	-0.069
Mof_C 	C 	0.55827	0.13933	0.47363	-0.132
Mof_H 	H 	0.57257	0.13253	0.49753	0.052
Mof_H 	H 	0.53407	0.10803	0.46193	-0.182
Mof_C 	C 	0.59757	0.16633	0.44283	-0.294
Mof_H 	H 	0.62597	0.19203	0.45723	0.109
Mof_H 	H 	0.58617	0.18243	0.42383	0.186
Mof_C 	C 	0.61407	0.13753	0.41823	0.131
Mof_C 	C 	0.58567	0.10833	0.38683	0.059
Mof_H 	H 	0.55467	0.10453	0.38213	0.005
Mof_C 	C 	0.60247	0.08463	0.36223	-0.063
Mof_C 	C 	0.64777	0.09013	0.36913	0.027
Mof_H 	H 	0.65927	0.07393	0.35223	0.022
Mof_C 	C 	0.67637	0.11923	0.40053	-0.001
Mof_C 	C 	0.65937	0.14293	0.42493	0.068
Mof_H 	H 	0.67887	0.16283	0.44643	-0.02
Mof_O 	O 	0.54072	0.29633	0.56283	-0.435
Mof_H 	H 	0.55877	0.32213	0.57513	0.2
Mof_C 	C 	0.56657	0.28303	0.54303	0.452
Mof_O 	O 	0.60967	0.31533	0.53443	-0.206
Mof_C 	C 	0.54127	0.24523	0.51353	-0.139
Mof_C 	C 	0.49197	0.22363	0.50633	0.006
Mof_H 	H 	0.47337	0.23473	0.52023	0.027
Mof_C 	C 	0.46997	0.18593	0.47873	-0.032
Mof_C 	C 	0.49727	0.16973	0.45843	0.146
Mof_H 	H 	0.48227	0.14403	0.43953	-0.023
Mof_C 	C 	0.54657	0.19133	0.46563	0.152
Mof_C 	C 	0.56857	0.22913	0.49313	-0.445
Mof_H 	H 	0.60227	0.24393	0.49813	0.194
Mof_C 	C 	0.57647	0.17573	0.44163	-0.125
Mof_H 	H 	0.56337	0.16763	0.41373	-0.02
Mof_H 	H 	0.60987	0.20323	0.43973	0.034
Mof_C 	C 	0.57817	0.13303	0.45903	0.191
Mof_H 	H 	0.59687	0.14263	0.48453	-0.018
Mof_H 	H 	0.54497	0.10723	0.46543	0.227
Mof_C 	C 	0.60077	0.11393	0.42973	-0.122
Mof_C 	C 	0.57387	0.08853	0.39623	-0.077
Mof_H 	H 	0.54127	0.08103	0.39373	0.07
Mof_C 	C 	0.59447	0.07383	0.36653	-0.048
Mof_C 	C 	0.64217	0.08473	0.37023	0.011
Mof_H 	H 	0.65637	0.07483	0.34993	0.026
Mof_C 	C 	0.66927	0.11043	0.40373	-0.099
Mof_C 	C 	0.64847	0.12493	0.43343	-0.1
Mof_H 	H 	0.66697	0.14243	0.45633	0.086
Mof_Co	Co	0.81167	0.13333	0.36633	-0.441
Mof_Fe	Fe	0.47893	0.46947	0.70107	2.198
Mof_O 	O 	0.06089	0.51672	0.81991	-0.518
Mof_O 	O 	0.06594	0.46627	0.77685	-0.544
Mof_O 	O 	0.19231	0.37487	0.66252	-0.54
Mof_O 	O 	0.25321	0.36646	0.63816	-0.531
Mof_O 	O 	0.40768	0.47275	0.77623	-0.52
Mof_O 	O 	0.40843	0.44703	0.7135	-0.523
Mof_O 	O 	0.45171	0.42998	0.6472	-0.277
Mof_C 	C 	0.08333	0.49807	0.80307	0.481
Mof_C 	C 	0.23513	0.38207	0.66377	0.475
Mof_C 	C 	0.38923	0.45627	0.74257	0.468
Mof_O 	O 	0.27493	0.62237	0.89137	-0.3
Mof_C 	C 	0.20383	0.56697	0.85627	0.07
Mof_C 	C 	0.15753	0.55357	0.84327	0.012
Mof_H 	H 	0.14303	0.57207	0.85097	0.028
Mof_C 	C 	0.13223	0.51297	0.81897	-0.064
Mof_C 	C 	0.15333	0.48587	0.80767	-0.178
Mof_H 	H 	0.13603	0.45817	0.79107	0.113
Mof_C 	C 	0.19973	0.49937	0.82077	-0.093
Mof_C 	C 	0.22493	0.53987	0.84497	0.355
Mof_H 	H 	0.25663	0.54907	0.85387	-0.066
Mof_C 	C 	0.22493	0.47267	0.80697	-0.134
Mof_H 	H 	0.23923	0.46587	0.83087	0.053
Mof_H 	H 	0.20073	0.44137	0.79527	-0.179
Mof_C 	C 	0.26423	0.49967	0.77617	-0.29
Mof_H 	H 	0.29263	0.52537	0.79057	0.108
Mof_H 	H 	0.25283	0.51577	0.75717	0.184
Mof_C 	C 	0.28073	0.47087	0.75157	0.126
Mof_C 	C 	0.25233	0.44167	0.72017	0.058
Mof_H 	H 	0.22133	0.43787	0.71547	0.005
Mof_C 	C 	0.26913	0.41797	0.69557	-0.062
Mof_C 	C 	0.31443	0.42347	0.70247	0.027
Mof_H 	H 	0.32593	0.40727	0.68557	0.022
Mof_C 	C 	0.34303	0.45257	0.73387	-0.001
Mof_C 	C 	0.32603	0.47627	0.75827	0.067
Mof_H 	H 	0.34553	0.49617	0.77977	-0.02
Mof_O 	O 	0.20738	0.62967	0.89617	-0.435
Mof_H 	H 	0.22543	0.65547	0.90847	0.2
Mof_C 	C 	0.23323	0.61637	0.87637	0.452
Mof_O 	O 	0.27633	0.64867	0.86777	-0.206
Mof_C 	C 	0.20793	0.57857	0.84687	-0.136
Mof_C 	C 	0.15863	0.55697	0.83967	0.007
Mof_H 	H 	0.14003	0.56807	0.85357	0.027
Mof_C 	C 	0.13663	0.51927	0.81207	-0.033
Mof_C 	C 	0.16393	0.50307	0.79177	0.141
Mof_H 	H 	0.14893	0.47737	0.77287	-0.021
Mof_C 	C 	0.21323	0.52467	0.79897	0.149
Mof_C 	C 	0.23523	0.56247	0.82647	-0.436
Mof_H 	H 	0.26893	0.57727	0.83147	0.191
Mof_C 	C 	0.24313	0.50907	0.77497	-0.124
Mof_H 	H 	0.23003	0.50097	0.74707	-0.019
Mof_H 	H 	0.27653	0.53657	0.77307	0.034
Mof_C 	C 	0.24483	0.46637	0.79237	0.19
Mof_H 	H 	0.26353	0.47597	0.81787	-0.017
Mof_H 	H 	0.21163	0.44057	0.79877	0.226
Mof_C 	C 	0.26743	0.44727	0.76307	-0.117
Mof_C 	C 	0.24053	0.42187	0.72957	-0.075
Mof_H 	H 	0.20793	0.41437	0.72707	0.07
Mof_C 	C 	0.26113	0.40717	0.69987	-0.048
Mof_C 	C 	0.30883	0.41807	0.70357	0.011
Mof_H 	H 	0.32303	0.40817	0.68327	0.026
Mof_C 	C 	0.33593	0.44377	0.73707	-0.099
Mof_C 	C 	0.31513	0.45827	0.76677	-0.099
Mof_H 	H 	0.33363	0.47577	0.78967	0.085
Mof_Co	Co	0.47833	0.46667	0.69967	-0.441
Mof_Fe	Fe	0.1972	0.3428	0.0344	2.198
Mof_O 	O 	0.14995	0.87751	0.15324	-0.516
Mof_O 	O 	0.2004	0.93301	0.11018	-0.541
Mof_O 	O 	0.2918	0.15078	0.99585	-0.541
Mof_O 	O 	0.30021	0.22009	0.97149	-0.532
Mof_O 	O 	0.19392	0.26827	0.10956	-0.52
Mof_O 	O 	0.21964	0.29474	0.04683	-0.523
Mof_O 	O 	0.23669	0.35507	0.98053	-0.278
Mof_C 	C 	0.1686	0.9186	0.1364	0.484
Mof_C 	C 	0.2846	0.1864	0.9971	0.476
Mof_C 	C 	0.2104	0.2663	0.0759	0.466
Mof_O 	O 	0.0443	0.9859	0.2247	-0.295
Mof_C 	C 	0.0997	0.9702	0.1896	0.255
Mof_C 	C 	0.1131	0.9373	0.1766	0.023
Mof_H 	H 	0.0946	0.9043	0.1843	0.027
Mof_C 	C 	0.1537	0.9526	0.1523	-0.076
Mof_C 	C 	0.1808	0.0008	0.141	-0.233
Mof_H 	H 	0.2085	0.0112	0.1244	0.141
Mof_C 	C 	0.1673	0.0337	0.1541	-0.309
Mof_C 	C 	0.1268	0.0184	0.1783	0.784
Mof_H 	H 	0.1176	0.0409	0.1872	-0.203
Mof_C 	C 	0.194	0.0856	0.1403	-0.09
Mof_H 	H 	0.2008	0.1067	0.1642	0.036
Mof_H 	H 	0.2253	0.0927	0.1286	-0.274
Mof_C 	C 	0.167	0.0979	0.1095	-0.489
Mof_H 	H 	0.1413	0.1006	0.1239	0.158
Mof_H 	H 	0.1509	0.0704	0.0905	0.201
Mof_C 	C 	0.1958	0.1432	0.0849	0.214
Mof_C 	C 	0.225	0.144	0.0535	0.114
Mof_H 	H 	0.2288	0.1168	0.0488	-0.015
Mof_C 	C 	0.2487	0.1845	0.0289	-0.046
Mof_C 	C 	0.2432	0.2243	0.0358	0.028
Mof_H 	H 	0.2594	0.252	0.0189	0.022
Mof_C 	C 	0.2141	0.2238	0.0672	0.008
Mof_C 	C 	0.1904	0.1831	0.0916	0.091
Mof_H 	H 	0.1705	0.1827	0.1131	-0.039
Mof_O 	O 	0.037	0.91105	0.2295	-0.434
Mof_H 	H 	0.0112	0.9033	0.2418	0.189
Mof_C 	C 	0.0503	0.9502	0.2097	0.459
Mof_O 	O 	0.018	0.961	0.2011	-0.201
Mof_C 	C 	0.0881	0.9627	0.1802	-0.296
Mof_C 	C 	0.1097	0.935	0.173	-0.007
Mof_H 	H 	0.0986	0.9053	0.1869	0.031
Mof_C 	C 	0.1474	0.9507	0.1454	-0.024
Mof_C 	C 	0.1636	0.9942	0.1251	0.238
Mof_H 	H 	0.1893	0.0049	0.1062	-0.064
Mof_C 	C 	0.142	0.0219	0.1323	0.299
Mof_C 	C 	0.1042	0.0061	0.1598	-0.883
Mof_H 	H 	0.0894	0.025	0.1648	0.335
Mof_C 	C 	0.1576	0.0674	0.1083	-0.027
Mof_H 	H 	0.1657	0.0624	0.0804	-0.051
Mof_H 	H 	0.1301	0.0733	0.1064	0.027
Mof_C 	C 	0.2003	0.1118	0.1257	0.261
Mof_H 	H 	0.1907	0.1209	0.1512	-0.03
Mof_H 	H 	0.2261	0.1044	0.1321	0.3
Mof_C 	C 	0.2194	0.1535	0.0964	-0.174
Mof_C 	C 	0.2448	0.152	0.0629	-0.139
Mof_H 	H 	0.2523	0.1269	0.0604	0.098
Mof_C 	C 	0.2595	0.1873	0.0332	-0.063
Mof_C 	C 	0.2486	0.2241	0.0369	0.007
Mof_H 	H 	0.2585	0.2482	0.0166	0.027
Mof_C 	C 	0.2229	0.2255	0.0704	-0.104
Mof_C 	C 	0.2084	0.1902	0.1001	-0.141
Mof_H 	H 	0.1909	0.1912	0.123	0.107
Mof_Co	Co	0.2	0.345	0.033	-0.441
Mof_Fe	Fe	0.86387	0.67613	0.36773	2.198
Mof_O 	O 	0.81662	0.21084	0.48657	-0.515
Mof_O 	O 	0.86707	0.26634	0.44351	-0.542
Mof_O 	O 	0.95847	0.48411	0.32918	-0.535
Mof_O 	O 	0.96688	0.55342	0.30482	-0.526
Mof_O 	O 	0.86059	0.6016	0.44289	-0.52
Mof_O 	O 	0.88631	0.62807	0.38016	-0.523
Mof_O 	O 	0.90336	0.6884	0.31386	-0.276
Mof_C 	C 	0.83527	0.25193	0.46973	0.481
Mof_C 	C 	0.95127	0.51973	0.33043	0.475
Mof_C 	C 	0.87707	0.59963	0.40923	0.469
Mof_O 	O 	0.71097	0.31923	0.55803	-0.3
Mof_C 	C 	0.76637	0.30353	0.52293	0.066
Mof_C 	C 	0.77977	0.27063	0.50993	0.012
Mof_H 	H 	0.76127	0.23763	0.51763	0.029
Mof_C 	C 	0.82037	0.28593	0.48563	-0.064
Mof_C 	C 	0.84747	0.33413	0.47433	-0.174
Mof_H 	H 	0.87517	0.34453	0.45773	0.113
Mof_C 	C 	0.83397	0.36703	0.48743	-0.086
Mof_C 	C 	0.79347	0.35173	0.51163	0.347
Mof_H 	H 	0.78427	0.37423	0.52053	-0.063
Mof_C 	C 	0.86067	0.41893	0.47363	-0.138
Mof_H 	H 	0.86747	0.44003	0.49753	0.055
Mof_H 	H 	0.89197	0.42603	0.46193	-0.174
Mof_C 	C 	0.83367	0.43123	0.44283	-0.283
Mof_H 	H 	0.80797	0.43393	0.45723	0.107
Mof_H 	H 	0.81757	0.40373	0.42383	0.181
Mof_C 	C 	0.86247	0.47653	0.41823	0.119
Mof_C 	C 	0.89167	0.47733	0.38683	0.055
Mof_H 	H 	0.89547	0.45013	0.38213	0.006
Mof_C 	C 	0.91537	0.51783	0.36223	-0.06
Mof_C 	C 	0.90987	0.55763	0.36913	0.028
Mof_H 	H 	0.92607	0.58533	0.35223	0.022
Mof_C 	C 	0.88077	0.55713	0.40053	-0.001
Mof_C 	C 	0.85707	0.51643	0.42493	0.065
Mof_H 	H 	0.83717	0.51603	0.44643	-0.019
Mof_O 	O 	0.70367	0.24438	0.56283	-0.434
Mof_H 	H 	0.67787	0.23663	0.57513	0.2
Mof_C 	C 	0.71697	0.28353	0.54303	0.451
Mof_O 	O 	0.68467	0.29433	0.53443	-0.206
Mof_C 	C 	0.75477	0.29603	0.51353	-0.131
Mof_C 	C 	0.77637	0.26833	0.50633	0.007
Mof_H 	H 	0.76527	0.23863	0.52023	0.027
Mof_C 	C 	0.81407	0.28403	0.47873	-0.032
Mof_C 	C 	0.83027	0.32753	0.45843	0.137
Mof_H 	H 	0.85597	0.33823	0.43953	-0.019
Mof_C 	C 	0.80867	0.35523	0.46563	0.144
Mof_C 	C 	0.77087	0.33943	0.49313	-0.427
Mof_H 	H 	0.75607	0.35833	0.49813	0.188
Mof_C 	C 	0.82427	0.40073	0.44163	-0.122
Mof_H 	H 	0.83237	0.39573	0.41373	-0.018
Mof_H 	H 	0.79677	0.40663	0.43973	0.033
Mof_C 	C 	0.86697	0.44513	0.45903	0.186
Mof_H 	H 	0.85737	0.45423	0.48453	-0.017
Mof_H 	H 	0.89277	0.43773	0.46543	0.224
Mof_C 	C 	0.88607	0.48683	0.42973	-0.111
Mof_C 	C 	0.91147	0.48533	0.39623	-0.072
Mof_H 	H 	0.91897	0.46023	0.39373	0.07
Mof_C 	C 	0.92617	0.52063	0.36653	-0.048
Mof_C 	C 	0.91527	0.55743	0.37023	0.011
Mof_H 	H 	0.92517	0.58153	0.34993	0.027
Mof_C 	C 	0.88957	0.55883	0.40373	-0.099
Mof_C 	C 	0.87507	0.52353	0.43343	-0.096
Mof_H 	H 	0.85757	0.52453	0.45633	0.085
Mof_Co	Co	0.86667	0.67833	0.36633	-0.441
Mof_Fe	Fe	0.53053	0.00947	0.70107	2.201
Mof_O 	O 	0.48328	0.54418	0.81991	-0.515
Mof_O 	O 	0.53373	0.59968	0.77685	-0.542
Mof_O 	O 	0.62513	0.81745	0.66252	-0.54
Mof_O 	O 	0.63354	0.88676	0.63816	-0.53
Mof_O 	O 	0.52725	0.93494	0.77623	-0.518
Mof_O 	O 	0.55297	0.96141	0.7135	-0.518
Mof_O 	O 	0.57002	0.02174	0.6472	-0.283
Mof_C 	C 	0.50193	0.58527	0.80307	0.481
Mof_C 	C 	0.61793	0.85307	0.66377	0.475
Mof_C 	C 	0.54373	0.93297	0.74257	0.468
Mof_O 	O 	0.37763	0.65257	0.89137	-0.3
Mof_C 	C 	0.43303	0.63687	0.85627	0.07
Mof_C 	C 	0.44643	0.60397	0.84327	0.012
Mof_H 	H 	0.42793	0.57097	0.85097	0.029
Mof_C 	C 	0.48703	0.61927	0.81897	-0.064
Mof_C 	C 	0.51413	0.66747	0.80767	-0.178
Mof_H 	H 	0.54183	0.67787	0.79107	0.113
Mof_C 	C 	0.50063	0.70037	0.82077	-0.092
Mof_C 	C 	0.46013	0.68507	0.84497	0.355
Mof_H 	H 	0.45093	0.70757	0.85387	-0.066
Mof_C 	C 	0.52733	0.75227	0.80697	-0.135
Mof_H 	H 	0.53413	0.77337	0.83087	0.053
Mof_H 	H 	0.55863	0.75937	0.79527	-0.178
Mof_C 	C 	0.50033	0.76457	0.77617	-0.289
Mof_H 	H 	0.47463	0.76727	0.79057	0.108
Mof_H 	H 	0.48423	0.73707	0.75717	0.184
Mof_C 	C 	0.52913	0.80987	0.75157	0.125
Mof_C 	C 	0.55833	0.81067	0.72017	0.057
Mof_H 	H 	0.56213	0.78347	0.71547	0.005
Mof_C 	C 	0.58203	0.85117	0.69557	-0.061
Mof_C 	C 	0.57653	0.89097	0.70247	0.027
Mof_H 	H 	0.59273	0.91867	0.68557	0.022
Mof_C 	C 	0.54743	0.89047	0.73387	-0
Mof_C 	C 	0.52373	0.84977	0.75827	0.067
Mof_H 	H 	0.50383	0.84937	0.77977	-0.02
Mof_O 	O 	0.37033	0.57772	0.89617	-0.435
Mof_H 	H 	0.34453	0.56997	0.90847	0.2
Mof_C 	C 	0.38363	0.61687	0.87637	0.452
Mof_O 	O 	0.35133	0.62767	0.86777	-0.206
Mof_C 	C 	0.42143	0.62937	0.84687	-0.135
Mof_C 	C 	0.44303	0.60167	0.83967	0.007
Mof_H 	H 	0.43193	0.57197	0.85357	0.027
Mof_C 	C 	0.48073	0.61737	0.81207	-0.032
Mof_C 	C 	0.49693	0.66087	0.79177	0.141
Mof_H 	H 	0.52263	0.67157	0.77287	-0.021
Mof_C 	C 	0.47533	0.68857	0.79897	0.148
Mof_C 	C 	0.43753	0.67277	0.82647	-0.436
Mof_H 	H 	0.42273	0.69167	0.83147	0.191
Mof_C 	C 	0.49093	0.73407	0.77497	-0.123
Mof_H 	H 	0.49903	0.72907	0.74707	-0.019
Mof_H 	H 	0.46343	0.73997	0.77307	0.033
Mof_C 	C 	0.53363	0.77847	0.79237	0.189
Mof_H 	H 	0.52403	0.78757	0.81787	-0.017
Mof_H 	H 	0.55943	0.77107	0.79877	0.225
Mof_C 	C 	0.55273	0.82017	0.76307	-0.116
Mof_C 	C 	0.57813	0.81867	0.72957	-0.075
Mof_H 	H 	0.58563	0.79357	0.72707	0.07
Mof_C 	C 	0.59283	0.85397	0.69987	-0.048
Mof_C 	C 	0.58193	0.89077	0.70357	0.011
Mof_H 	H 	0.59183	0.91487	0.68327	0.027
Mof_C 	C 	0.55623	0.89217	0.73707	-0.099
Mof_C 	C 	0.54173	0.85687	0.76677	-0.099
Mof_H 	H 	0.52423	0.85787	0.78967	0.086
Mof_Co	Co	0.53333	0.01167	0.69967	-0.447
Mof_Fe	Fe	0.8544	0.6572	0.4656	2.198
Mof_O 	O 	0.27244	0.12249	0.34676	-0.515
Mof_O 	O 	0.26739	0.06699	0.38982	-0.544
Mof_O 	O 	0.14102	0.84922	0.50415	-0.539
Mof_O 	O 	0.08012	0.77991	0.52851	-0.531
Mof_O 	O 	0.92565	0.73173	0.39044	-0.518
Mof_O 	O 	0.9249	0.70526	0.45317	-0.52
Mof_O 	O 	0.88162	0.64493	0.51947	-0.276
Mof_C 	C 	0.25	0.0814	0.3636	0.477
Mof_C 	C 	0.0982	0.8136	0.5029	0.472
Mof_C 	C 	0.9441	0.7337	0.4241	0.465
Mof_O 	O 	0.0584	0.0141	0.2753	-0.295
Mof_C 	C 	0.1295	0.0298	0.3104	-0.114
Mof_C 	C 	0.1758	0.0627	0.3234	0.001
Mof_H 	H 	0.1903	0.0957	0.3157	0.03
Mof_C 	C 	0.2011	0.0474	0.3477	-0.054
Mof_C 	C 	0.18	0.9992	0.359	-0.125
Mof_H 	H 	0.1973	0.9888	0.3756	0.086
Mof_C 	C 	0.1336	0.9663	0.3459	0.121
Mof_C 	C 	0.1084	0.9816	0.3217	-0.062
Mof_H 	H 	0.0767	0.9591	0.3128	0.067
Mof_C 	C 	0.1084	0.9144	0.3597	-0.175
Mof_H 	H 	0.0941	0.8933	0.3358	0.069
Mof_H 	H 	0.1326	0.9073	0.3714	-0.075
Mof_C 	C 	0.0691	0.9021	0.3905	-0.089
Mof_H 	H 	0.0407	0.8994	0.3761	0.053
Mof_H 	H 	0.0805	0.9296	0.4095	0.161
Mof_C 	C 	0.0526	0.8568	0.4151	0.035
Mof_C 	C 	0.081	0.856	0.4465	-0.004
Mof_H 	H 	0.112	0.8832	0.4512	0.026
Mof_C 	C 	0.0642	0.8155	0.4711	-0.075
Mof_C 	C 	0.0189	0.7757	0.4642	0.022
Mof_H 	H 	0.0074	0.748	0.4811	0.023
Mof_C 	C 	0.9903	0.7762	0.4328	0.005
Mof_C 	C 	0.0073	0.8169	0.4084	0.028
Mof_H 	H 	0.9878	0.8173	0.3869	0.004
Mof_O 	O 	0.12595	0.08895	0.2705	-0.431
Mof_H 	H 	0.1079	0.0967	0.2582	0.199
Mof_C 	C 	0.1001	0.0498	0.2903	0.439
Mof_O 	O 	0.057	0.039	0.2989	-0.216
Mof_C 	C 	0.1254	0.0373	0.3198	0.023
Mof_C 	C 	0.1747	0.065	0.327	0.02
Mof_H 	H 	0.1933	0.0947	0.3131	0.024
Mof_C 	C 	0.1967	0.0493	0.3546	-0.039
Mof_C 	C 	0.1694	0.0058	0.3749	0.049
Mof_H 	H 	0.1844	0.9951	0.3938	0.019
Mof_C 	C 	0.1201	0.9781	0.3677	-0.005
Mof_C 	C 	0.0981	0.9939	0.3402	0.003
Mof_H 	H 	0.0644	0.975	0.3352	0.046
Mof_C 	C 	0.0902	0.9326	0.3917	-0.21
Mof_H 	H 	0.1033	0.9376	0.4196	0.011
Mof_H 	H 	0.0568	0.9267	0.3936	0.037
Mof_C 	C 	0.0885	0.8882	0.3743	0.109
Mof_H 	H 	0.0698	0.8791	0.3488	-0.004
Mof_H 	H 	0.1217	0.8956	0.3679	0.144
Mof_C 	C 	0.0659	0.8465	0.4036	-0.049
Mof_C 	C 	0.0928	0.848	0.4371	-0.012
Mof_H 	H 	0.1254	0.8731	0.4396	0.042
Mof_C 	C 	0.0722	0.8127	0.4668	-0.031
Mof_C 	C 	0.0245	0.7759	0.4631	0.005
Mof_H 	H 	0.0103	0.7518	0.4834	0.025
Mof_C 	C 	0.9974	0.7745	0.4296	-0.085
Mof_C 	C 	0.0182	0.8098	0.3999	-0.072
Mof_H 	H 	0.9997	0.8088	0.377	0.075
Mof_Co	Co	0.855	0.655	0.467	-0.441
Mof_Fe	Fe	0.52107	0.99053	0.79893	2.193
Mof_O 	O 	0.93911	0.45582	0.68009	-0.512
Mof_O 	O 	0.93406	0.40032	0.72315	-0.537
Mof_O 	O 	0.80769	0.18255	0.83748	-0.54
Mof_O 	O 	0.74679	0.11324	0.86184	-0.532
Mof_O 	O 	0.59232	0.06506	0.72377	-0.522
Mof_O 	O 	0.59157	0.03859	0.7865	-0.528
Mof_O 	O 	0.54829	0.97826	0.8528	-0.272
Mof_C 	C 	0.91667	0.41473	0.69693	0.48
Mof_C 	C 	0.76487	0.14693	0.83623	0.475
Mof_C 	C 	0.61077	0.06703	0.75743	0.469
Mof_O 	O 	0.72507	0.34743	0.60863	-0.3
Mof_C 	C 	0.79617	0.36313	0.64373	0.069
Mof_C 	C 	0.84247	0.39603	0.65673	0.012
Mof_H 	H 	0.85697	0.42903	0.64903	0.029
Mof_C 	C 	0.86777	0.38073	0.68103	-0.064
Mof_C 	C 	0.84667	0.33253	0.69233	-0.178
Mof_H 	H 	0.86397	0.32213	0.70893	0.115
Mof_C 	C 	0.80027	0.29963	0.67923	-0.09
Mof_C 	C 	0.77507	0.31493	0.65503	0.355
Mof_H 	H 	0.74337	0.29243	0.64613	-0.066
Mof_C 	C 	0.77507	0.24773	0.69303	-0.135
Mof_H 	H 	0.76077	0.22663	0.66913	0.054
Mof_H 	H 	0.79927	0.24063	0.70473	-0.177
Mof_C 	C 	0.73577	0.23543	0.72383	-0.287
Mof_H 	H 	0.70737	0.23273	0.70943	0.107
Mof_H 	H 	0.74717	0.26293	0.74283	0.183
Mof_C 	C 	0.71927	0.19013	0.74843	0.125
Mof_C 	C 	0.74767	0.18933	0.77983	0.057
Mof_H 	H 	0.77867	0.21653	0.78453	0.005
Mof_C 	C 	0.73087	0.14883	0.80443	-0.062
Mof_C 	C 	0.68557	0.10903	0.79753	0.027
Mof_H 	H 	0.67407	0.08133	0.81443	0.021
Mof_C 	C 	0.65697	0.10953	0.76613	-0.002
Mof_C 	C 	0.67397	0.15023	0.74173	0.066
Mof_H 	H 	0.65447	0.15063	0.72023	-0.019
Mof_O 	O 	0.79262	0.42228	0.60383	-0.434
Mof_H 	H 	0.77457	0.43003	0.59153	0.2
Mof_C 	C 	0.76677	0.38313	0.62363	0.451
Mof_O 	O 	0.72367	0.37233	0.63223	-0.206
Mof_C 	C 	0.79207	0.37063	0.65313	-0.134
Mof_C 	C 	0.84137	0.39833	0.66033	0.007
Mof_H 	H 	0.85997	0.42803	0.64643	0.027
Mof_C 	C 	0.86337	0.38263	0.68793	-0.031
Mof_C 	C 	0.83607	0.33913	0.70823	0.142
Mof_H 	H 	0.85107	0.32843	0.72713	-0.021
Mof_C 	C 	0.78677	0.31143	0.70103	0.147
Mof_C 	C 	0.76477	0.32723	0.67353	-0.436
Mof_H 	H 	0.73107	0.30833	0.66853	0.191
Mof_C 	C 	0.75687	0.26593	0.72503	-0.124
Mof_H 	H 	0.76997	0.27093	0.75293	-0.019
Mof_H 	H 	0.72347	0.26003	0.72693	0.033
Mof_C 	C 	0.75517	0.22153	0.70763	0.188
Mof_H 	H 	0.73647	0.21243	0.68213	-0.017
Mof_H 	H 	0.78837	0.22893	0.70123	0.226
Mof_C 	C 	0.73257	0.17983	0.73693	-0.116
Mof_C 	C 	0.75947	0.18133	0.77043	-0.074
Mof_H 	H 	0.79207	0.20643	0.77293	0.07
Mof_C 	C 	0.73887	0.14603	0.80013	-0.048
Mof_C 	C 	0.69117	0.10923	0.79643	0.011
Mof_H 	H 	0.67697	0.08513	0.81673	0.025
Mof_C 	C 	0.66407	0.10783	0.76293	-0.099
Mof_C 	C 	0.68487	0.14313	0.73323	-0.098
Mof_H 	H 	0.66637	0.14213	0.71033	0.085
Mof_Co	Co	0.52167	0.98833	0.80033	-0.432
Mof_Fe	Fe	0.18773	0.32387	0.13227	2.198
Mof_O 	O 	0.60577	0.78916	0.01343	-0.516
Mof_O 	O 	0.60072	0.73366	0.05649	-0.542
Mof_O 	O 	0.47435	0.51589	0.17082	-0.54
Mof_O 	O 	0.41345	0.44658	0.19518	-0.531
Mof_O 	O 	0.25898	0.3984	0.05711	-0.52
Mof_O 	O 	0.25823	0.37193	0.11984	-0.523
Mof_O 	O 	0.21495	0.3116	0.18614	-0.277
Mof_C 	C 	0.58333	0.74807	0.03027	0.481
Mof_C 	C 	0.43153	0.48027	0.16957	0.475
Mof_C 	C 	0.27743	0.40037	0.09077	0.468
Mof_O 	O 	0.39173	0.68077	0.94197	-0.3
Mof_C 	C 	0.46283	0.69647	0.97707	0.069
Mof_C 	C 	0.50913	0.72937	0.99007	0.012
Mof_H 	H 	0.52363	0.76237	0.98237	0.029
Mof_C 	C 	0.53443	0.71407	0.01437	-0.064
Mof_C 	C 	0.51333	0.66587	0.02567	-0.177
Mof_H 	H 	0.53063	0.65547	0.04227	0.113
Mof_C 	C 	0.46693	0.63297	0.01257	-0.091
Mof_C 	C 	0.44173	0.64827	0.98837	0.354
Mof_H 	H 	0.41003	0.62577	0.97947	-0.065
Mof_C 	C 	0.44173	0.58107	0.02637	-0.135
Mof_H 	H 	0.42743	0.55997	0.00247	0.053
Mof_H 	H 	0.46593	0.57397	0.03807	-0.178
Mof_C 	C 	0.40243	0.56877	0.05717	-0.289
Mof_H 	H 	0.37403	0.56607	0.04277	0.108
Mof_H 	H 	0.41383	0.59627	0.07617	0.184
Mof_C 	C 	0.38593	0.52347	0.08177	0.125
Mof_C 	C 	0.41433	0.52267	0.11317	0.057
Mof_H 	H 	0.44533	0.54987	0.11787	0.005
Mof_C 	C 	0.39753	0.48217	0.13777	-0.062
Mof_C 	C 	0.35223	0.44237	0.13087	0.027
Mof_H 	H 	0.34073	0.41467	0.14777	0.022
Mof_C 	C 	0.32363	0.44287	0.09947	-0.001
Mof_C 	C 	0.34063	0.48357	0.07507	0.067
Mof_H 	H 	0.32113	0.48397	0.05357	-0.019
Mof_O 	O 	0.45928	0.75562	0.93717	-0.435
Mof_H 	H 	0.44123	0.76337	0.92487	0.2
Mof_C 	C 	0.43343	0.71647	0.95697	0.452
Mof_O 	O 	0.39033	0.70567	0.96557	-0.206
Mof_C 	C 	0.45873	0.70397	0.98647	-0.135
Mof_C 	C 	0.50803	0.73167	0.99367	0.007
Mof_H 	H 	0.52663	0.76137	0.97977	0.027
Mof_C 	C 	0.53003	0.71597	0.02127	-0.032
Mof_C 	C 	0.50273	0.67247	0.04157	0.141
Mof_H 	H 	0.51773	0.66177	0.06047	-0.021
Mof_C 	C 	0.45343	0.64477	0.03437	0.148
Mof_C 	C 	0.43143	0.66057	0.00687	-0.434
Mof_H 	H 	0.39773	0.64167	0.00187	0.191
Mof_C 	C 	0.42353	0.59927	0.05837	-0.124
Mof_H 	H 	0.43663	0.60427	0.08627	-0.019
Mof_H 	H 	0.39013	0.59337	0.06027	0.034
Mof_C 	C 	0.42183	0.55487	0.04097	0.189
Mof_H 	H 	0.40313	0.54577	0.01547	-0.017
Mof_H 	H 	0.45503	0.56227	0.03457	0.225
Mof_C 	C 	0.39923	0.51317	0.07027	-0.116
Mof_C 	C 	0.42613	0.51467	0.10377	-0.074
Mof_H 	H 	0.45873	0.53977	0.10627	0.07
Mof_C 	C 	0.40553	0.47937	0.13347	-0.048
Mof_C 	C 	0.35783	0.44257	0.12977	0.011
Mof_H 	H 	0.34363	0.41847	0.15007	0.026
Mof_C 	C 	0.33073	0.44117	0.09627	-0.099
Mof_C 	C 	0.35153	0.47647	0.06657	-0.098
Mof_H 	H 	0.33303	0.47547	0.04367	0.085
Mof_Co	Co	0.18833	0.32167	0.13367	-0.441
Mof_Fe	Fe	0.8028	0.1456	0.4656	2.198
Mof_O 	O 	0.85005	0.72756	0.34676	-0.515
Mof_O 	O 	0.7996	0.73261	0.38982	-0.542
Mof_O 	O 	0.7082	0.85898	0.50415	-0.54
Mof_O 	O 	0.69979	0.91988	0.52851	-0.53
Mof_O 	O 	0.80608	0.07435	0.39044	-0.523
Mof_O 	O 	0.78036	0.0751	0.45317	-0.527
Mof_O 	O 	0.76331	0.11838	0.51947	-0.278
Mof_C 	C 	0.8314	0.75	0.3636	0.481
Mof_C 	C 	0.7154	0.9018	0.5029	0.477
Mof_C 	C 	0.7896	0.0559	0.4241	0.474
Mof_O 	O 	0.9557	0.9416	0.2753	-0.292
Mof_C 	C 	0.9003	0.8705	0.3104	0.066
Mof_C 	C 	0.8869	0.8242	0.3234	0.012
Mof_H 	H 	0.9054	0.8097	0.3157	0.029
Mof_C 	C 	0.8463	0.7989	0.3477	-0.062
Mof_C 	C 	0.8192	0.82	0.359	-0.173
Mof_H 	H 	0.7915	0.8027	0.3756	0.111
Mof_C 	C 	0.8327	0.8664	0.3459	-0.083
Mof_C 	C 	0.8732	0.8916	0.3217	0.334
Mof_H 	H 	0.8824	0.9233	0.3128	-0.057
Mof_C 	C 	0.806	0.8916	0.3597	-0.14
Mof_H 	H 	0.7992	0.9059	0.3358	0.055
Mof_H 	H 	0.7747	0.8674	0.3714	-0.183
Mof_C 	C 	0.833	0.9309	0.3905	-0.285
Mof_H 	H 	0.8587	0.9593	0.3761	0.112
Mof_H 	H 	0.8491	0.9195	0.4095	0.189
Mof_C 	C 	0.8042	0.9474	0.4151	0.124
Mof_C 	C 	0.775	0.919	0.4465	0.06
Mof_H 	H 	0.7712	0.888	0.4512	0.005
Mof_C 	C 	0.7513	0.9358	0.4711	-0.064
Mof_C 	C 	0.7568	0.9811	0.4642	0.032
Mof_H 	H 	0.7406	0.9926	0.4811	0.021
Mof_C 	C 	0.7859	0.0097	0.4328	-0.016
Mof_C 	C 	0.8096	0.9927	0.4084	0.081
Mof_H 	H 	0.8295	0.0122	0.3869	-0.023
Mof_O 	O 	0.963	0.87405	0.2705	-0.436
Mof_H 	H 	0.9888	0.8921	0.2582	0.211
Mof_C 	C 	0.9497	0.8999	0.2903	0.448
Mof_O 	O 	0.982	0.943	0.2989	-0.195
Mof_C 	C 	0.9119	0.8746	0.3198	-0.128
Mof_C 	C 	0.8903	0.8253	0.327	0.007
Mof_H 	H 	0.9014	0.8067	0.3131	0.028
Mof_C 	C 	0.8526	0.8033	0.3546	-0.033
Mof_C 	C 	0.8364	0.8306	0.3749	0.134
Mof_H 	H 	0.8107	0.8156	0.3938	-0.017
Mof_C 	C 	0.858	0.8799	0.3677	0.149
Mof_C 	C 	0.8958	0.9019	0.3402	-0.418
Mof_H 	H 	0.9106	0.9356	0.3352	0.189
Mof_C 	C 	0.8424	0.9098	0.3917	-0.135
Mof_H 	H 	0.8343	0.8967	0.4196	-0.017
Mof_H 	H 	0.8699	0.9432	0.3936	0.037
Mof_C 	C 	0.7997	0.9115	0.3743	0.196
Mof_H 	H 	0.8093	0.9302	0.3488	-0.017
Mof_H 	H 	0.7739	0.8783	0.3679	0.231
Mof_C 	C 	0.7806	0.9341	0.4036	-0.125
Mof_C 	C 	0.7552	0.9072	0.4371	-0.071
Mof_H 	H 	0.7477	0.8746	0.4396	0.069
Mof_C 	C 	0.7405	0.9278	0.4668	-0.05
Mof_C 	C 	0.7514	0.9755	0.4631	0.02
Mof_H 	H 	0.7415	0.9897	0.4834	0.027
Mof_C 	C 	0.7771	0.0026	0.4296	-0.107
Mof_C 	C 	0.7916	0.9818	0.3999	-0.081
Mof_H 	H 	0.8091	0.0003	0.377	0.073
Mof_Co	Co	0.8	0.145	0.467	-0.441
Mof_Fe	Fe	0.46947	0.47893	0.79893	2.198
Mof_O 	O 	0.51672	0.06089	0.68009	-0.518
Mof_O 	O 	0.46627	0.06594	0.72315	-0.544
Mof_O 	O 	0.37487	0.19231	0.83748	-0.54
Mof_O 	O 	0.36646	0.25321	0.86184	-0.531
Mof_O 	O 	0.47275	0.40768	0.72377	-0.52
Mof_O 	O 	0.44703	0.40843	0.7865	-0.523
Mof_O 	O 	0.42998	0.45171	0.8528	-0.277
Mof_C 	C 	0.49807	0.08333	0.69693	0.481
Mof_C 	C 	0.38207	0.23513	0.83623	0.475
Mof_C 	C 	0.45627	0.38923	0.75743	0.468
Mof_O 	O 	0.62237	0.27493	0.60863	-0.3
Mof_C 	C 	0.56697	0.20383	0.64373	0.07
Mof_C 	C 	0.55357	0.15753	0.65673	0.012
Mof_H 	H 	0.57207	0.14303	0.64903	0.028
Mof_C 	C 	0.51297	0.13223	0.68103	-0.064
Mof_C 	C 	0.48587	0.15333	0.69233	-0.177
Mof_H 	H 	0.45817	0.13603	0.70893	0.113
Mof_C 	C 	0.49937	0.19973	0.67923	-0.093
Mof_C 	C 	0.53987	0.22493	0.65503	0.355
Mof_H 	H 	0.54907	0.25663	0.64613	-0.066
Mof_C 	C 	0.47267	0.22493	0.69303	-0.134
Mof_H 	H 	0.46587	0.23923	0.66913	0.053
Mof_H 	H 	0.44137	0.20073	0.70473	-0.179
Mof_C 	C 	0.49967	0.26423	0.72383	-0.29
Mof_H 	H 	0.52537	0.29263	0.70943	0.108
Mof_H 	H 	0.51577	0.25283	0.74283	0.184
Mof_C 	C 	0.47087	0.28073	0.74843	0.126
Mof_C 	C 	0.44167	0.25233	0.77983	0.058
Mof_H 	H 	0.43787	0.22133	0.78453	0.005
Mof_C 	C 	0.41797	0.26913	0.80443	-0.062
Mof_C 	C 	0.42347	0.31443	0.79753	0.027
Mof_H 	H 	0.40727	0.32593	0.81443	0.022
Mof_C 	C 	0.45257	0.34303	0.76613	-0.001
Mof_C 	C 	0.47627	0.32603	0.74173	0.067
Mof_H 	H 	0.49617	0.34553	0.72023	-0.02
Mof_O 	O 	0.62967	0.20738	0.60383	-0.435
Mof_H 	H 	0.65547	0.22543	0.59153	0.2
Mof_C 	C 	0.61637	0.23323	0.62363	0.452
Mof_O 	O 	0.64867	0.27633	0.63223	-0.206
Mof_C 	C 	0.57857	0.20793	0.65313	-0.136
Mof_C 	C 	0.55697	0.15863	0.66033	0.007
Mof_H 	H 	0.56807	0.14003	0.64643	0.027
Mof_C 	C 	0.51927	0.13663	0.68793	-0.033
Mof_C 	C 	0.50307	0.16393	0.70823	0.141
Mof_H 	H 	0.47737	0.14893	0.72713	-0.021
Mof_C 	C 	0.52467	0.21323	0.70103	0.149
Mof_C 	C 	0.56247	0.23523	0.67353	-0.436
Mof_H 	H 	0.57727	0.26893	0.66853	0.191
Mof_C 	C 	0.50907	0.24313	0.72503	-0.124
Mof_H 	H 	0.50097	0.23003	0.75293	-0.019
Mof_H 	H 	0.53657	0.27653	0.72693	0.034
Mof_C 	C 	0.46637	0.24483	0.70763	0.19
Mof_H 	H 	0.47597	0.26353	0.68213	-0.017
Mof_H 	H 	0.44057	0.21163	0.70123	0.226
Mof_C 	C 	0.44727	0.26743	0.73693	-0.117
Mof_C 	C 	0.42187	0.24053	0.77043	-0.075
Mof_H 	H 	0.41437	0.20793	0.77293	0.07
Mof_C 	C 	0.40717	0.26113	0.80013	-0.048
Mof_C 	C 	0.41807	0.30883	0.79643	0.011
Mof_H 	H 	0.40817	0.32303	0.81673	0.026
Mof_C 	C 	0.44377	0.33593	0.76293	-0.099
Mof_C 	C 	0.45827	0.31513	0.73323	-0.099
Mof_H 	H 	0.47577	0.33363	0.71033	0.085
Mof_Co	Co	0.46667	0.47833	0.80033	-0.441
Mof_Fe	Fe	0.13613	0.81227	0.13227	2.198
Mof_O 	O 	0.18338	0.39423	0.01343	-0.516
Mof_O 	O 	0.13293	0.39928	0.05649	-0.543
Mof_O 	O 	0.04153	0.52565	0.17082	-0.543
Mof_O 	O 	0.03312	0.58655	0.19518	-0.534
Mof_O 	O 	0.13941	0.74102	0.05711	-0.521
Mof_O 	O 	0.11369	0.74177	0.11984	-0.524
Mof_O 	O 	0.09664	0.78505	0.18614	-0.279
Mof_C 	C 	0.16473	0.41667	0.03027	0.481
Mof_C 	C 	0.04873	0.56847	0.16957	0.475
Mof_C 	C 	0.12293	0.72257	0.09077	0.468
Mof_O 	O 	0.28903	0.60827	0.94197	-0.3
Mof_C 	C 	0.23363	0.53717	0.97707	0.073
Mof_C 	C 	0.22023	0.49087	0.99007	0.012
Mof_H 	H 	0.23873	0.47637	0.98237	0.029
Mof_C 	C 	0.17963	0.46557	0.01437	-0.065
Mof_C 	C 	0.15253	0.48667	0.02567	-0.181
Mof_H 	H 	0.12483	0.46937	0.04227	0.114
Mof_C 	C 	0.16603	0.53307	0.01257	-0.097
Mof_C 	C 	0.20653	0.55827	0.98837	0.363
Mof_H 	H 	0.21573	0.58997	0.97947	-0.068
Mof_C 	C 	0.13933	0.55827	0.02637	-0.132
Mof_H 	H 	0.13253	0.57257	0.00247	0.052
Mof_H 	H 	0.10803	0.53407	0.03807	-0.182
Mof_C 	C 	0.16633	0.59757	0.05717	-0.294
Mof_H 	H 	0.19203	0.62597	0.04277	0.109
Mof_H 	H 	0.18243	0.58617	0.07617	0.186
Mof_C 	C 	0.13753	0.61407	0.08177	0.13
Mof_C 	C 	0.10833	0.58567	0.11317	0.059
Mof_H 	H 	0.10453	0.55467	0.11787	0.005
Mof_C 	C 	0.08463	0.60247	0.13777	-0.063
Mof_C 	C 	0.09013	0.64777	0.13087	0.027
Mof_H 	H 	0.07393	0.65927	0.14777	0.022
Mof_C 	C 	0.11923	0.67637	0.09947	-0.001
Mof_C 	C 	0.14293	0.65937	0.07507	0.068
Mof_H 	H 	0.16283	0.67887	0.05357	-0.02
Mof_O 	O 	0.29633	0.54072	0.93717	-0.435
Mof_H 	H 	0.32213	0.55877	0.92487	0.2
Mof_C 	C 	0.28303	0.56657	0.95697	0.452
Mof_O 	O 	0.31533	0.60967	0.96557	-0.206
Mof_C 	C 	0.24523	0.54127	0.98647	-0.138
Mof_C 	C 	0.22363	0.49197	0.99367	0.007
Mof_H 	H 	0.23473	0.47337	0.97977	0.027
Mof_C 	C 	0.18593	0.46997	0.02127	-0.032
Mof_C 	C 	0.16973	0.49727	0.04157	0.146
Mof_H 	H 	0.14403	0.48227	0.06047	-0.022
Mof_C 	C 	0.19133	0.54657	0.03437	0.152
Mof_C 	C 	0.22913	0.56857	0.00687	-0.444
Mof_H 	H 	0.24393	0.60227	0.00187	0.194
Mof_C 	C 	0.17573	0.57647	0.05837	-0.125
Mof_H 	H 	0.16763	0.56337	0.08627	-0.02
Mof_H 	H 	0.20323	0.60987	0.06027	0.034
Mof_C 	C 	0.13303	0.57817	0.04097	0.191
Mof_H 	H 	0.14263	0.59687	0.01547	-0.018
Mof_H 	H 	0.10723	0.54497	0.03457	0.227
Mof_C 	C 	0.11393	0.60077	0.07027	-0.122
Mof_C 	C 	0.08853	0.57387	0.10377	-0.077
Mof_H 	H 	0.08103	0.54127	0.10627	0.069
Mof_C 	C 	0.07383	0.59447	0.13347	-0.048
Mof_C 	C 	0.08473	0.64217	0.12977	0.011
Mof_H 	H 	0.07483	0.65637	0.15007	0.026
Mof_C 	C 	0.11043	0.66927	0.09627	-0.099
Mof_C 	C 	0.12493	0.64847	0.06657	-0.1
Mof_H 	H 	0.14243	0.66697	0.04367	0.086
Mof_Co	Co	0.13333	0.81167	0.13367	-0.441
Mof_Fe	Fe	0.3428	0.1972	0.4656	2.198
Mof_O 	O 	0.87751	0.14995	0.34676	-0.516
Mof_O 	O 	0.93301	0.2004	0.38982	-0.541
Mof_O 	O 	0.15078	0.2918	0.50415	-0.541
Mof_O 	O 	0.22009	0.30021	0.52851	-0.532
Mof_O 	O 	0.26827	0.19392	0.39044	-0.52
Mof_O 	O 	0.29474	0.21964	0.45317	-0.523
Mof_O 	O 	0.35507	0.23669	0.51947	-0.278
Mof_C 	C 	0.9186	0.1686	0.3636	0.484
Mof_C 	C 	0.1864	0.2846	0.5029	0.476
Mof_C 	C 	0.2663	0.2104	0.4241	0.466
Mof_O 	O 	0.9859	0.0443	0.2753	-0.295
Mof_C 	C 	0.9702	0.0997	0.3104	0.255
Mof_C 	C 	0.9373	0.1131	0.3234	0.023
Mof_H 	H 	0.9043	0.0946	0.3157	0.027
Mof_C 	C 	0.9526	0.1537	0.3477	-0.076
Mof_C 	C 	0.0008	0.1808	0.359	-0.233
Mof_H 	H 	0.0112	0.2085	0.3756	0.141
Mof_C 	C 	0.0337	0.1673	0.3459	-0.308
Mof_C 	C 	0.0184	0.1268	0.3217	0.783
Mof_H 	H 	0.0409	0.1176	0.3128	-0.203
Mof_C 	C 	0.0856	0.194	0.3597	-0.09
Mof_H 	H 	0.1067	0.2008	0.3358	0.036
Mof_H 	H 	0.0927	0.2253	0.3714	-0.274
Mof_C 	C 	0.0979	0.167	0.3905	-0.488
Mof_H 	H 	0.1006	0.1413	0.3761	0.158
Mof_H 	H 	0.0704	0.1509	0.4095	0.201
Mof_C 	C 	0.1432	0.1958	0.4151	0.214
Mof_C 	C 	0.144	0.225	0.4465	0.114
Mof_H 	H 	0.1168	0.2288	0.4512	-0.015
Mof_C 	C 	0.1845	0.2487	0.4711	-0.046
Mof_C 	C 	0.2243	0.2432	0.4642	0.028
Mof_H 	H 	0.252	0.2594	0.4811	0.022
Mof_C 	C 	0.2238	0.2141	0.4328	0.008
Mof_C 	C 	0.1831	0.1904	0.4084	0.091
Mof_H 	H 	0.1827	0.1705	0.3869	-0.039
Mof_O 	O 	0.91105	0.037	0.2705	-0.434
Mof_H 	H 	0.9033	0.0112	0.2582	0.189
Mof_C 	C 	0.9502	0.0503	0.2903	0.459
Mof_O 	O 	0.961	0.018	0.2989	-0.201
Mof_C 	C 	0.9627	0.0881	0.3198	-0.296
Mof_C 	C 	0.935	0.1097	0.327	-0.007
Mof_H 	H 	0.9053	0.0986	0.3131	0.031
Mof_C 	C 	0.9507	0.1474	0.3546	-0.024
Mof_C 	C 	0.9942	0.1636	0.3749	0.238
Mof_H 	H 	0.0049	0.1893	0.3938	-0.063
Mof_C 	C 	0.0219	0.142	0.3677	0.299
Mof_C 	C 	0.0061	0.1042	0.3402	-0.882
Mof_H 	H 	0.025	0.0894	0.3352	0.335
Mof_C 	C 	0.0674	0.1576	0.3917	-0.027
Mof_H 	H 	0.0624	0.1657	0.4196	-0.051
Mof_H 	H 	0.0733	0.1301	0.3936	0.027
Mof_C 	C 	0.1118	0.2003	0.3743	0.261
Mof_H 	H 	0.1209	0.1907	0.3488	-0.03
Mof_H 	H 	0.1044	0.2261	0.3679	0.3
Mof_C 	C 	0.1535	0.2194	0.4036	-0.174
Mof_C 	C 	0.152	0.2448	0.4371	-0.139
Mof_H 	H 	0.1269	0.2523	0.4396	0.098
Mof_C 	C 	0.1873	0.2595	0.4668	-0.063
Mof_C 	C 	0.2241	0.2486	0.4631	0.007
Mof_H 	H 	0.2482	0.2585	0.4834	0.027
Mof_C 	C 	0.2255	0.2229	0.4296	-0.104
Mof_C 	C 	0.1902	0.2084	0.3999	-0.141
Mof_H 	H 	0.1912	0.1909	0.377	0.107
Mof_Co	Co	0.345	0.2	0.467	-0.441
Mof_Fe	Fe	0.00947	0.53053	0.79893	2.201
Mof_O 	O 	0.54418	0.48328	0.68009	-0.515
Mof_O 	O 	0.59968	0.53373	0.72315	-0.542
Mof_O 	O 	0.81745	0.62513	0.83748	-0.54
Mof_O 	O 	0.88676	0.63354	0.86184	-0.53
Mof_O 	O 	0.93494	0.52725	0.72377	-0.518
Mof_O 	O 	0.96141	0.55297	0.7865	-0.518
Mof_O 	O 	0.02174	0.57002	0.8528	-0.283
Mof_C 	C 	0.58527	0.50193	0.69693	0.481
Mof_C 	C 	0.85307	0.61793	0.83623	0.475
Mof_C 	C 	0.93297	0.54373	0.75743	0.468
Mof_O 	O 	0.65257	0.37763	0.60863	-0.3
Mof_C 	C 	0.63687	0.43303	0.64373	0.07
Mof_C 	C 	0.60397	0.44643	0.65673	0.012
Mof_H 	H 	0.57097	0.42793	0.64903	0.029
Mof_C 	C 	0.61927	0.48703	0.68103	-0.064
Mof_C 	C 	0.66747	0.51413	0.69233	-0.178
Mof_H 	H 	0.67787	0.54183	0.70893	0.113
Mof_C 	C 	0.70037	0.50063	0.67923	-0.092
Mof_C 	C 	0.68507	0.46013	0.65503	0.355
Mof_H 	H 	0.70757	0.45093	0.64613	-0.066
Mof_C 	C 	0.75227	0.52733	0.69303	-0.135
Mof_H 	H 	0.77337	0.53413	0.66913	0.053
Mof_H 	H 	0.75937	0.55863	0.70473	-0.178
Mof_C 	C 	0.76457	0.50033	0.72383	-0.289
Mof_H 	H 	0.76727	0.47463	0.70943	0.108
Mof_H 	H 	0.73707	0.48423	0.74283	0.184
Mof_C 	C 	0.80987	0.52913	0.74843	0.125
Mof_C 	C 	0.81067	0.55833	0.77983	0.057
Mof_H 	H 	0.78347	0.56213	0.78453	0.005
Mof_C 	C 	0.85117	0.58203	0.80443	-0.061
Mof_C 	C 	0.89097	0.57653	0.79753	0.027
Mof_H 	H 	0.91867	0.59273	0.81443	0.022
Mof_C 	C 	0.89047	0.54743	0.76613	-0
Mof_C 	C 	0.84977	0.52373	0.74173	0.067
Mof_H 	H 	0.84937	0.50383	0.72023	-0.02
Mof_O 	O 	0.57772	0.37033	0.60383	-0.435
Mof_H 	H 	0.56997	0.34453	0.59153	0.2
Mof_C 	C 	0.61687	0.38363	0.62363	0.452
Mof_O 	O 	0.62767	0.35133	0.63223	-0.206
Mof_C 	C 	0.62937	0.42143	0.65313	-0.135
Mof_C 	C 	0.60167	0.44303	0.66033	0.007
Mof_H 	H 	0.57197	0.43193	0.64643	0.027
Mof_C 	C 	0.61737	0.48073	0.68793	-0.032
Mof_C 	C 	0.66087	0.49693	0.70823	0.141
Mof_H 	H 	0.67157	0.52263	0.72713	-0.021
Mof_C 	C 	0.68857	0.47533	0.70103	0.148
Mof_C 	C 	0.67277	0.43753	0.67353	-0.436
Mof_H 	H 	0.69167	0.42273	0.66853	0.191
Mof_C 	C 	0.73407	0.49093	0.72503	-0.123
Mof_H 	H 	0.72907	0.49903	0.75293	-0.019
Mof_H 	H 	0.73997	0.46343	0.72693	0.033
Mof_C 	C 	0.77847	0.53363	0.70763	0.189
Mof_H 	H 	0.78757	0.52403	0.68213	-0.017
Mof_H 	H 	0.77107	0.55943	0.70123	0.225
Mof_C 	C 	0.82017	0.55273	0.73693	-0.116
Mof_C 	C 	0.81867	0.57813	0.77043	-0.075
Mof_H 	H 	0.79357	0.58563	0.77293	0.07
Mof_C 	C 	0.85397	0.59283	0.80013	-0.048
Mof_C 	C 	0.89077	0.58193	0.79643	0.011
Mof_H 	H 	0.91487	0.59183	0.81673	0.027
Mof_C 	C 	0.89217	0.55623	0.76293	-0.099
Mof_C 	C 	0.85687	0.54173	0.73323	-0.099
Mof_H 	H 	0.85787	0.52423	0.71033	0.086
Mof_Co	Co	0.01167	0.53333	0.80033	-0.447
Mof_Fe	Fe	0.67613	0.86387	0.13227	2.198
Mof_O 	O 	0.21084	0.81662	0.01343	-0.515
Mof_O 	O 	0.26634	0.86707	0.05649	-0.542
Mof_O 	O 	0.48411	0.95847	0.17082	-0.535
Mof_O 	O 	0.55342	0.96688	0.19518	-0.526
Mof_O 	O 	0.6016	0.86059	0.05711	-0.52
Mof_O 	O 	0.62807	0.88631	0.11984	-0.523
Mof_O 	O 	0.6884	0.90336	0.18614	-0.276
Mof_C 	C 	0.25193	0.83527	0.03027	0.481
Mof_C 	C 	0.51973	0.95127	0.16957	0.475
Mof_C 	C 	0.59963	0.87707	0.09077	0.469
Mof_O 	O 	0.31923	0.71097	0.94197	-0.3
Mof_C 	C 	0.30353	0.76637	0.97707	0.065
Mof_C 	C 	0.27063	0.77977	0.99007	0.012
Mof_H 	H 	0.23763	0.76127	0.98237	0.029
Mof_C 	C 	0.28593	0.82037	0.01437	-0.064
Mof_C 	C 	0.33413	0.84747	0.02567	-0.174
Mof_H 	H 	0.34453	0.87517	0.04227	0.112
Mof_C 	C 	0.36703	0.83397	0.01257	-0.086
Mof_C 	C 	0.35173	0.79347	0.98837	0.345
Mof_H 	H 	0.37423	0.78427	0.97947	-0.062
Mof_C 	C 	0.41893	0.86067	0.02637	-0.138
Mof_H 	H 	0.44003	0.86747	0.00247	0.055
Mof_H 	H 	0.42603	0.89197	0.03807	-0.174
Mof_C 	C 	0.43123	0.83367	0.05717	-0.283
Mof_H 	H 	0.43393	0.80797	0.04277	0.106
Mof_H 	H 	0.40373	0.81757	0.07617	0.181
Mof_C 	C 	0.47653	0.86247	0.08177	0.119
Mof_C 	C 	0.47733	0.89167	0.11317	0.055
Mof_H 	H 	0.45013	0.89547	0.11787	0.006
Mof_C 	C 	0.51783	0.91537	0.13777	-0.06
Mof_C 	C 	0.55763	0.90987	0.13087	0.028
Mof_H 	H 	0.58533	0.92607	0.14777	0.022
Mof_C 	C 	0.55713	0.88077	0.09947	-0.001
Mof_C 	C 	0.51643	0.85707	0.07507	0.065
Mof_H 	H 	0.51603	0.83717	0.05357	-0.019
Mof_O 	O 	0.24438	0.70367	0.93717	-0.434
Mof_H 	H 	0.23663	0.67787	0.92487	0.2
Mof_C 	C 	0.28353	0.71697	0.95697	0.451
Mof_O 	O 	0.29433	0.68467	0.96557	-0.206
Mof_C 	C 	0.29603	0.75477	0.98647	-0.131
Mof_C 	C 	0.26833	0.77637	0.99367	0.007
Mof_H 	H 	0.23863	0.76527	0.97977	0.027
Mof_C 	C 	0.28403	0.81407	0.02127	-0.032
Mof_C 	C 	0.32753	0.83027	0.04157	0.137
Mof_H 	H 	0.33823	0.85597	0.06047	-0.019
Mof_C 	C 	0.35523	0.80867	0.03437	0.144
Mof_C 	C 	0.33943	0.77087	0.00687	-0.425
Mof_H 	H 	0.35833	0.75607	0.00187	0.188
Mof_C 	C 	0.40073	0.82427	0.05837	-0.123
Mof_H 	H 	0.39573	0.83237	0.08627	-0.018
Mof_H 	H 	0.40663	0.79677	0.06027	0.033
Mof_C 	C 	0.44513	0.86697	0.04097	0.186
Mof_H 	H 	0.45423	0.85737	0.01547	-0.017
Mof_H 	H 	0.43773	0.89277	0.03457	0.224
Mof_C 	C 	0.48683	0.88607	0.07027	-0.111
Mof_C 	C 	0.48533	0.91147	0.10377	-0.072
Mof_H 	H 	0.46023	0.91897	0.10627	0.07
Mof_C 	C 	0.52063	0.92617	0.13347	-0.048
Mof_C 	C 	0.55743	0.91527	0.12977	0.011
Mof_H 	H 	0.58153	0.92517	0.15007	0.027
Mof_C 	C 	0.55883	0.88957	0.09627	-0.099
Mof_C 	C 	0.52353	0.87507	0.06657	-0.096
Mof_H 	H 	0.52453	0.85757	0.04367	0.085
Mof_Co	Co	0.67833	0.86667	0.13367	-0.441
Mof_Fe	Fe	0.3428	0.1456	0.9656	2.198
Mof_O 	O 	0.87751	0.72756	0.84676	-0.516
Mof_O 	O 	0.93301	0.73261	0.88982	-0.54
Mof_O 	O 	0.15078	0.85898	0.00415	-0.54
Mof_O 	O 	0.22009	0.91988	0.02851	-0.531
Mof_O 	O 	0.26827	0.07435	0.89044	-0.522
Mof_O 	O 	0.29474	0.0751	0.95317	-0.527
Mof_O 	O 	0.35507	0.11838	0.01947	-0.278
Mof_C 	C 	0.9186	0.75	0.8636	0.484
Mof_C 	C 	0.1864	0.9018	0.0029	0.478
Mof_C 	C 	0.2663	0.0559	0.9241	0.473
Mof_O 	O 	0.9859	0.9416	0.7753	-0.292
Mof_C 	C 	0.9702	0.8705	0.8104	0.238
Mof_C 	C 	0.9373	0.8242	0.8234	0.022
Mof_H 	H 	0.9043	0.8097	0.8157	0.027
Mof_C 	C 	0.9526	0.7989	0.8477	-0.073
Mof_C 	C 	0.0008	0.82	0.859	-0.225
Mof_H 	H 	0.0112	0.8027	0.8756	0.137
Mof_C 	C 	0.0337	0.8664	0.8459	-0.285
Mof_C 	C 	0.0184	0.8916	0.8217	0.733
Mof_H 	H 	0.0409	0.9233	0.8128	-0.185
Mof_C 	C 	0.0856	0.8916	0.8597	-0.099
Mof_H 	H 	0.1067	0.9059	0.8358	0.039
Mof_H 	H 	0.0927	0.8674	0.8714	-0.273
Mof_C 	C 	0.0979	0.9309	0.8905	-0.471
Mof_H 	H 	0.1006	0.9593	0.8761	0.158
Mof_H 	H 	0.0704	0.9195	0.9095	0.205
Mof_C 	C 	0.1432	0.9474	0.9151	0.206
Mof_C 	C 	0.144	0.919	0.9465	0.113
Mof_H 	H 	0.1168	0.888	0.9512	-0.014
Mof_C 	C 	0.1845	0.9358	0.9711	-0.049
Mof_C 	C 	0.2243	0.9811	0.9642	0.033
Mof_H 	H 	0.252	0.9926	0.9811	0.021
Mof_C 	C 	0.2238	0.0097	0.9328	-0.008
Mof_C 	C 	0.1831	0.9927	0.9084	0.104
Mof_H 	H 	0.1827	0.0122	0.8869	-0.041
Mof_O 	O 	0.91105	0.87405	0.7705	-0.436
Mof_H 	H 	0.9033	0.8921	0.7582	0.2
Mof_C 	C 	0.9502	0.8999	0.7903	0.458
Mof_O 	O 	0.961	0.943	0.7989	-0.193
Mof_C 	C 	0.9627	0.8746	0.8198	-0.278
Mof_C 	C 	0.935	0.8253	0.827	-0.006
Mof_H 	H 	0.9053	0.8067	0.8131	0.031
Mof_C 	C 	0.9507	0.8033	0.8546	-0.025
Mof_C 	C 	0.9942	0.8306	0.8749	0.224
Mof_H 	H 	0.0049	0.8156	0.8938	-0.057
Mof_C 	C 	0.0219	0.8799	0.8677	0.288
Mof_C 	C 	0.0061	0.9019	0.8402	-0.834
Mof_H 	H 	0.025	0.9356	0.8352	0.323
Mof_C 	C 	0.0674	0.9098	0.8917	-0.046
Mof_H 	H 	0.0624	0.8967	0.9196	-0.046
Mof_H 	H 	0.0733	0.9432	0.8936	0.031
Mof_C 	C 	0.1118	0.9115	0.8743	0.263
Mof_H 	H 	0.1209	0.9302	0.8488	-0.029
Mof_H 	H 	0.1044	0.8783	0.8679	0.301
Mof_C 	C 	0.1535	0.9341	0.9036	-0.179
Mof_C 	C 	0.152	0.9072	0.9371	-0.13
Mof_H 	H 	0.1269	0.8746	0.9396	0.095
Mof_C 	C 	0.1873	0.9278	0.9668	-0.064
Mof_C 	C 	0.2241	0.9755	0.9631	0.017
Mof_H 	H 	0.2482	0.9897	0.9834	0.028
Mof_C 	C 	0.2255	0.0026	0.9296	-0.113
Mof_C 	C 	0.1902	0.9818	0.8999	-0.119
Mof_H 	H 	0.1912	0.0003	0.877	0.093
Mof_Co	Co	0.345	0.145	0.967	-0.441
Mof_Fe	Fe	0.00947	0.47893	0.29893	2.201
Mof_O 	O 	0.54418	0.06089	0.18009	-0.518
Mof_O 	O 	0.59968	0.06594	0.22315	-0.544
Mof_O 	O 	0.81745	0.19231	0.33748	-0.54
Mof_O 	O 	0.88676	0.25321	0.36184	-0.53
Mof_O 	O 	0.93494	0.40768	0.22377	-0.518
Mof_O 	O 	0.96141	0.40843	0.2865	-0.518
Mof_O 	O 	0.02174	0.45171	0.3528	-0.283
Mof_C 	C 	0.58527	0.08333	0.19693	0.481
Mof_C 	C 	0.85307	0.23513	0.33623	0.475
Mof_C 	C 	0.93297	0.38923	0.25743	0.468
Mof_O 	O 	0.65257	0.27493	0.10863	-0.3
Mof_C 	C 	0.63687	0.20383	0.14373	0.07
Mof_C 	C 	0.60397	0.15753	0.15673	0.012
Mof_H 	H 	0.57097	0.14303	0.14903	0.028
Mof_C 	C 	0.61927	0.13223	0.18103	-0.064
Mof_C 	C 	0.66747	0.15333	0.19233	-0.177
Mof_H 	H 	0.67787	0.13603	0.20893	0.112
Mof_C 	C 	0.70037	0.19973	0.17923	-0.093
Mof_C 	C 	0.68507	0.22493	0.15503	0.355
Mof_H 	H 	0.70757	0.25663	0.14613	-0.066
Mof_C 	C 	0.75227	0.22493	0.19303	-0.134
Mof_H 	H 	0.77337	0.23923	0.16913	0.053
Mof_H 	H 	0.75937	0.20073	0.20473	-0.179
Mof_C 	C 	0.76457	0.26423	0.22383	-0.29
Mof_H 	H 	0.76727	0.29263	0.20943	0.108
Mof_H 	H 	0.73707	0.25283	0.24283	0.184
Mof_C 	C 	0.80987	0.28073	0.24843	0.125
Mof_C 	C 	0.81067	0.25233	0.27983	0.058
Mof_H 	H 	0.78347	0.22133	0.28453	0.005
Mof_C 	C 	0.85117	0.26913	0.30443	-0.061
Mof_C 	C 	0.89097	0.31443	0.29753	0.028
Mof_H 	H 	0.91867	0.32593	0.31443	0.022
Mof_C 	C 	0.89047	0.34303	0.26613	-0
Mof_C 	C 	0.84977	0.32603	0.24173	0.067
Mof_H 	H 	0.84937	0.34553	0.22023	-0.02
Mof_O 	O 	0.57772	0.20738	0.10383	-0.435
Mof_H 	H 	0.56997	0.22543	0.09153	0.2
Mof_C 	C 	0.61687	0.23323	0.12363	0.452
Mof_O 	O 	0.62767	0.27633	0.13223	-0.206
Mof_C 	C 	0.62937	0.20793	0.15313	-0.136
Mof_C 	C 	0.60167	0.15863	0.16033	0.007
Mof_H 	H 	0.57197	0.14003	0.14643	0.027
Mof_C 	C 	0.61737	0.13663	0.18793	-0.033
Mof_C 	C 	0.66087	0.16393	0.20823	0.141
Mof_H 	H 	0.67157	0.14893	0.22713	-0.021
Mof_C 	C 	0.68857	0.21323	0.20103	0.149
Mof_C 	C 	0.67277	0.23523	0.17353	-0.436
Mof_H 	H 	0.69167	0.26893	0.16853	0.191
Mof_C 	C 	0.73407	0.24313	0.22503	-0.123
Mof_H 	H 	0.72907	0.23003	0.25293	-0.019
Mof_H 	H 	0.73997	0.27653	0.22693	0.033
Mof_C 	C 	0.77847	0.24483	0.20763	0.19
Mof_H 	H 	0.78757	0.26353	0.18213	-0.017
Mof_H 	H 	0.77107	0.21163	0.20123	0.225
Mof_C 	C 	0.82017	0.26743	0.23693	-0.117
Mof_C 	C 	0.81867	0.24053	0.27043	-0.075
Mof_H 	H 	0.79357	0.20793	0.27293	0.07
Mof_C 	C 	0.85397	0.26113	0.30013	-0.048
Mof_C 	C 	0.89077	0.30883	0.29643	0.01
Mof_H 	H 	0.91487	0.32303	0.31673	0.027
Mof_C 	C 	0.89217	0.33593	0.26293	-0.099
Mof_C 	C 	0.85687	0.31513	0.23323	-0.099
Mof_H 	H 	0.85787	0.33363	0.21033	0.086
Mof_Co	Co	0.01167	0.47833	0.30033	-0.447
Mof_Fe	Fe	0.67613	0.81227	0.63227	2.198
Mof_O 	O 	0.21084	0.39423	0.51343	-0.515
Mof_O 	O 	0.26634	0.39928	0.55649	-0.542
Mof_O 	O 	0.48411	0.52565	0.67082	-0.54
Mof_O 	O 	0.55342	0.58655	0.69518	-0.531
Mof_O 	O 	0.6016	0.74102	0.55711	-0.52
Mof_O 	O 	0.62807	0.74177	0.61984	-0.523
Mof_O 	O 	0.6884	0.78505	0.68614	-0.278
Mof_C 	C 	0.25193	0.41667	0.53027	0.481
Mof_C 	C 	0.51973	0.56847	0.66957	0.475
Mof_C 	C 	0.59963	0.72257	0.59077	0.468
Mof_O 	O 	0.31923	0.60827	0.44197	-0.3
Mof_C 	C 	0.30353	0.53717	0.47707	0.07
Mof_C 	C 	0.27063	0.49087	0.49007	0.012
Mof_H 	H 	0.23763	0.47637	0.48237	0.029
Mof_C 	C 	0.28593	0.46557	0.51437	-0.064
Mof_C 	C 	0.33413	0.48667	0.52567	-0.178
Mof_H 	H 	0.34453	0.46937	0.54227	0.114
Mof_C 	C 	0.36703	0.53307	0.51257	-0.092
Mof_C 	C 	0.35173	0.55827	0.48837	0.356
Mof_H 	H 	0.37423	0.58997	0.47947	-0.066
Mof_C 	C 	0.41893	0.55827	0.52637	-0.135
Mof_H 	H 	0.44003	0.57257	0.50247	0.053
Mof_H 	H 	0.42603	0.53407	0.53807	-0.178
Mof_C 	C 	0.43123	0.59757	0.55717	-0.289
Mof_H 	H 	0.43393	0.62597	0.54277	0.108
Mof_H 	H 	0.40373	0.58617	0.57617	0.184
Mof_C 	C 	0.47653	0.61407	0.58177	0.125
Mof_C 	C 	0.47733	0.58567	0.61317	0.057
Mof_H 	H 	0.45013	0.55467	0.61787	0.005
Mof_C 	C 	0.51783	0.60247	0.63777	-0.062
Mof_C 	C 	0.55763	0.64777	0.63087	0.027
Mof_H 	H 	0.58533	0.65927	0.64777	0.022
Mof_C 	C 	0.55713	0.67637	0.59947	-0.001
Mof_C 	C 	0.51643	0.65937	0.57507	0.067
Mof_H 	H 	0.51603	0.67887	0.55357	-0.02
Mof_O 	O 	0.24438	0.54072	0.43717	-0.435
Mof_H 	H 	0.23663	0.55877	0.42487	0.2
Mof_C 	C 	0.28353	0.56657	0.45697	0.452
Mof_O 	O 	0.29433	0.60967	0.46557	-0.206
Mof_C 	C 	0.29603	0.54127	0.48647	-0.135
Mof_C 	C 	0.26833	0.49197	0.49367	0.007
Mof_H 	H 	0.23863	0.47337	0.47977	0.027
Mof_C 	C 	0.28403	0.46997	0.52127	-0.032
Mof_C 	C 	0.32753	0.49727	0.54157	0.142
Mof_H 	H 	0.33823	0.48227	0.56047	-0.021
Mof_C 	C 	0.35523	0.54657	0.53437	0.148
Mof_C 	C 	0.33943	0.56857	0.50687	-0.437
Mof_H 	H 	0.35833	0.60227	0.50187	0.191
Mof_C 	C 	0.40073	0.57647	0.55837	-0.123
Mof_H 	H 	0.39573	0.56337	0.58627	-0.019
Mof_H 	H 	0.40663	0.60987	0.56027	0.033
Mof_C 	C 	0.44513	0.57817	0.54097	0.189
Mof_H 	H 	0.45423	0.59687	0.51547	-0.017
Mof_H 	H 	0.43773	0.54497	0.53457	0.225
Mof_C 	C 	0.48683	0.60077	0.57027	-0.117
Mof_C 	C 	0.48533	0.57387	0.60377	-0.074
Mof_H 	H 	0.46023	0.54127	0.60627	0.07
Mof_C 	C 	0.52063	0.59447	0.63347	-0.048
Mof_C 	C 	0.55743	0.64217	0.62977	0.011
Mof_H 	H 	0.58153	0.65637	0.65007	0.026
Mof_C 	C 	0.55883	0.66927	0.59627	-0.099
Mof_C 	C 	0.52353	0.64847	0.56657	-0.098
Mof_H 	H 	0.52453	0.66697	0.54367	0.085
Mof_Co	Co	0.67833	0.81167	0.63367	-0.441
Mof_Fe	Fe	0.8544	0.1972	0.9656	2.198
Mof_O 	O 	0.27244	0.14995	0.84676	-0.516
Mof_O 	O 	0.26739	0.2004	0.88982	-0.543
Mof_O 	O 	0.14102	0.2918	0.00415	-0.54
Mof_O 	O 	0.08012	0.30021	0.02851	-0.532
Mof_O 	O 	0.92565	0.19392	0.89044	-0.518
Mof_O 	O 	0.9249	0.21964	0.95317	-0.519
Mof_O 	O 	0.88162	0.23669	0.01947	-0.276
Mof_C 	C 	0.25	0.1686	0.8636	0.481
Mof_C 	C 	0.0982	0.2846	0.0029	0.473
Mof_C 	C 	0.9441	0.2104	0.9241	0.462
Mof_O 	O 	0.0584	0.0443	0.7753	-0.296
Mof_C 	C 	0.1295	0.0997	0.8104	0.073
Mof_C 	C 	0.1758	0.1131	0.8234	0.012
Mof_H 	H 	0.1903	0.0946	0.8157	0.028
Mof_C 	C 	0.2011	0.1537	0.8477	-0.066
Mof_C 	C 	0.18	0.1808	0.859	-0.182
Mof_H 	H 	0.1973	0.2085	0.8756	0.115
Mof_C 	C 	0.1336	0.1673	0.8459	-0.098
Mof_C 	C 	0.1084	0.1268	0.8217	0.371
Mof_H 	H 	0.0767	0.1176	0.8128	-0.073
Mof_C 	C 	0.1084	0.194	0.8597	-0.129
Mof_H 	H 	0.0941	0.2008	0.8358	0.052
Mof_H 	H 	0.1326	0.2253	0.8714	-0.172
Mof_C 	C 	0.0691	0.167	0.8905	-0.291
Mof_H 	H 	0.0407	0.1413	0.8761	0.104
Mof_H 	H 	0.0805	0.1509	0.9095	0.178
Mof_C 	C 	0.0526	0.1958	0.9151	0.126
Mof_C 	C 	0.081	0.225	0.9465	0.054
Mof_H 	H 	0.112	0.2288	0.9512	0.006
Mof_C 	C 	0.0642	0.2487	0.9711	-0.06
Mof_C 	C 	0.0189	0.2432	0.9642	0.022
Mof_H 	H 	0.0074	0.2594	0.9811	0.023
Mof_C 	C 	0.9903	0.2141	0.9328	0.015
Mof_C 	C 	0.0073	0.1904	0.9084	0.051
Mof_H 	H 	0.9878	0.1705	0.8869	-0.016
Mof_O 	O 	0.12595	0.037	0.7705	-0.431
Mof_H 	H 	0.1079	0.0112	0.7582	0.187
Mof_C 	C 	0.1001	0.0503	0.7903	0.449
Mof_O 	O 	0.057	0.018	0.7989	-0.213
Mof_C 	C 	0.1254	0.0881	0.8198	-0.14
Mof_C 	C 	0.1747	0.1097	0.827	0.007
Mof_H 	H 	0.1933	0.0986	0.8131	0.027
Mof_C 	C 	0.1967	0.1474	0.8546	-0.032
Mof_C 	C 	0.1694	0.1636	0.8749	0.147
Mof_H 	H 	0.1844	0.1893	0.8938	-0.024
Mof_C 	C 	0.1201	0.142	0.8677	0.147
Mof_C 	C 	0.0981	0.1042	0.8402	-0.449
Mof_H 	H 	0.0644	0.0894	0.8352	0.192
Mof_C 	C 	0.0902	0.1576	0.8917	-0.113
Mof_H 	H 	0.1033	0.1657	0.9196	-0.021
Mof_H 	H 	0.0568	0.1301	0.8936	0.03
Mof_C 	C 	0.0885	0.2003	0.8743	0.181
Mof_H 	H 	0.0698	0.1907	0.8488	-0.017
Mof_H 	H 	0.1217	0.2261	0.8679	0.219
Mof_C 	C 	0.0659	0.2194	0.9036	-0.107
Mof_C 	C 	0.0928	0.2448	0.9371	-0.078
Mof_H 	H 	0.1254	0.2523	0.9396	0.07
Mof_C 	C 	0.0722	0.2595	0.9668	-0.046
Mof_C 	C 	0.0245	0.2486	0.9631	0
Mof_H 	H 	0.0103	0.2585	0.9834	0.025
Mof_C 	C 	0.9974	0.2229	0.9296	-0.09
Mof_C 	C 	0.0182	0.2084	0.8999	-0.117
Mof_H 	H 	0.9997	0.1909	0.877	0.098
Mof_Co	Co	0.855	0.2	0.967	-0.441
Mof_Fe	Fe	0.52107	0.53053	0.29893	2.198
Mof_O 	O 	0.93911	0.48328	0.18009	-0.512
Mof_O 	O 	0.93406	0.53373	0.22315	-0.538
Mof_O 	O 	0.80769	0.62513	0.33748	-0.54
Mof_O 	O 	0.74679	0.63354	0.36184	-0.531
Mof_O 	O 	0.59232	0.52725	0.22377	-0.52
Mof_O 	O 	0.59157	0.55297	0.2865	-0.523
Mof_O 	O 	0.54829	0.57002	0.3528	-0.277
Mof_C 	C 	0.91667	0.50193	0.19693	0.48
Mof_C 	C 	0.76487	0.61793	0.33623	0.475
Mof_C 	C 	0.61077	0.54373	0.25743	0.468
Mof_O 	O 	0.72507	0.37763	0.10863	-0.3
Mof_C 	C 	0.79617	0.43303	0.14373	0.069
Mof_C 	C 	0.84247	0.44643	0.15673	0.012
Mof_H 	H 	0.85697	0.42793	0.14903	0.029
Mof_C 	C 	0.86777	0.48703	0.18103	-0.064
Mof_C 	C 	0.84667	0.51413	0.19233	-0.178
Mof_H 	H 	0.86397	0.54183	0.20893	0.114
Mof_C 	C 	0.80027	0.50063	0.17923	-0.091
Mof_C 	C 	0.77507	0.46013	0.15503	0.355
Mof_H 	H 	0.74337	0.45093	0.14613	-0.066
Mof_C 	C 	0.77507	0.52733	0.19303	-0.135
Mof_H 	H 	0.76077	0.53413	0.16913	0.054
Mof_H 	H 	0.79927	0.55863	0.20473	-0.177
Mof_C 	C 	0.73577	0.50033	0.22383	-0.288
Mof_H 	H 	0.70737	0.47463	0.20943	0.108
Mof_H 	H 	0.74717	0.48423	0.24283	0.183
Mof_C 	C 	0.71927	0.52913	0.24843	0.124
Mof_C 	C 	0.74767	0.55833	0.27983	0.057
Mof_H 	H 	0.77867	0.56213	0.28453	0.005
Mof_C 	C 	0.73087	0.58203	0.30443	-0.062
Mof_C 	C 	0.68557	0.57653	0.29753	0.027
Mof_H 	H 	0.67407	0.59273	0.31443	0.022
Mof_C 	C 	0.65697	0.54743	0.26613	-0.001
Mof_C 	C 	0.67397	0.52373	0.24173	0.066
Mof_H 	H 	0.65447	0.50383	0.22023	-0.019
Mof_O 	O 	0.79262	0.37033	0.10383	-0.434
Mof_H 	H 	0.77457	0.34453	0.09153	0.2
Mof_C 	C 	0.76677	0.38363	0.12363	0.451
Mof_O 	O 	0.72367	0.35133	0.13223	-0.206
Mof_C 	C 	0.79207	0.42143	0.15313	-0.135
Mof_C 	C 	0.84137	0.44303	0.16033	0.007
Mof_H 	H 	0.85997	0.43193	0.14643	0.027
Mof_C 	C 	0.86337	0.48073	0.18793	-0.031
Mof_C 	C 	0.83607	0.49693	0.20823	0.142
Mof_H 	H 	0.85107	0.52263	0.22713	-0.021
Mof_C 	C 	0.78677	0.47533	0.20103	0.147
Mof_C 	C 	0.76477	0.43753	0.17353	-0.436
Mof_H 	H 	0.73107	0.42273	0.16853	0.191
Mof_C 	C 	0.75687	0.49093	0.22503	-0.123
Mof_H 	H 	0.76997	0.49903	0.25293	-0.019
Mof_H 	H 	0.72347	0.46343	0.22693	0.033
Mof_C 	C 	0.75517	0.53363	0.20763	0.188
Mof_H 	H 	0.73647	0.52403	0.18213	-0.017
Mof_H 	H 	0.78837	0.55943	0.20123	0.225
Mof_C 	C 	0.73257	0.55273	0.23693	-0.116
Mof_C 	C 	0.75947	0.57813	0.27043	-0.074
Mof_H 	H 	0.79207	0.58563	0.27293	0.07
Mof_C 	C 	0.73887	0.59283	0.30013	-0.048
Mof_C 	C 	0.69117	0.58193	0.29643	0.011
Mof_H 	H 	0.67697	0.59183	0.31673	0.026
Mof_C 	C 	0.66407	0.55623	0.26293	-0.099
Mof_C 	C 	0.68487	0.54173	0.23323	-0.098
Mof_H 	H 	0.66637	0.52423	0.21033	0.085
Mof_Co	Co	0.52167	0.53333	0.30033	-0.441
Mof_Fe	Fe	0.18773	0.86387	0.63227	2.198
Mof_O 	O 	0.60577	0.81662	0.51343	-0.515
Mof_O 	O 	0.60072	0.86707	0.55649	-0.542
Mof_O 	O 	0.47435	0.95847	0.67082	-0.535
Mof_O 	O 	0.41345	0.96688	0.69518	-0.525
Mof_O 	O 	0.25898	0.86059	0.55711	-0.52
Mof_O 	O 	0.25823	0.88631	0.61984	-0.522
Mof_O 	O 	0.21495	0.90336	0.68614	-0.275
Mof_C 	C 	0.58333	0.83527	0.53027	0.481
Mof_C 	C 	0.43153	0.95127	0.66957	0.475
Mof_C 	C 	0.27743	0.87707	0.59077	0.469
Mof_O 	O 	0.39173	0.71097	0.44197	-0.3
Mof_C 	C 	0.46283	0.76637	0.47707	0.066
Mof_C 	C 	0.50913	0.77977	0.49007	0.012
Mof_H 	H 	0.52363	0.76127	0.48237	0.029
Mof_C 	C 	0.53443	0.82037	0.51437	-0.064
Mof_C 	C 	0.51333	0.84747	0.52567	-0.174
Mof_H 	H 	0.53063	0.87517	0.54227	0.112
Mof_C 	C 	0.46693	0.83397	0.51257	-0.086
Mof_C 	C 	0.44173	0.79347	0.48837	0.346
Mof_H 	H 	0.41003	0.78427	0.47947	-0.063
Mof_C 	C 	0.44173	0.86067	0.52637	-0.138
Mof_H 	H 	0.42743	0.86747	0.50247	0.055
Mof_H 	H 	0.46593	0.89197	0.53807	-0.174
Mof_C 	C 	0.40243	0.83367	0.55717	-0.283
Mof_H 	H 	0.37403	0.80797	0.54277	0.107
Mof_H 	H 	0.41383	0.81757	0.57617	0.181
Mof_C 	C 	0.38593	0.86247	0.58177	0.119
Mof_C 	C 	0.41433	0.89167	0.61317	0.055
Mof_H 	H 	0.44533	0.89547	0.61787	0.006
Mof_C 	C 	0.39753	0.91537	0.63777	-0.06
Mof_C 	C 	0.35223	0.90987	0.63087	0.028
Mof_H 	H 	0.34073	0.92607	0.64777	0.022
Mof_C 	C 	0.32363	0.88077	0.59947	-0
Mof_C 	C 	0.34063	0.85707	0.57507	0.066
Mof_H 	H 	0.32113	0.83717	0.55357	-0.019
Mof_O 	O 	0.45928	0.70367	0.43717	-0.434
Mof_H 	H 	0.44123	0.67787	0.42487	0.2
Mof_C 	C 	0.43343	0.71697	0.45697	0.451
Mof_O 	O 	0.39033	0.68467	0.46557	-0.206
Mof_C 	C 	0.45873	0.75477	0.48647	-0.131
Mof_C 	C 	0.50803	0.77637	0.49367	0.007
Mof_H 	H 	0.52663	0.76527	0.47977	0.027
Mof_C 	C 	0.53003	0.81407	0.52127	-0.032
Mof_C 	C 	0.50273	0.83027	0.54157	0.137
Mof_H 	H 	0.51773	0.85597	0.56047	-0.019
Mof_C 	C 	0.45343	0.80867	0.53437	0.144
Mof_C 	C 	0.43143	0.77087	0.50687	-0.426
Mof_H 	H 	0.39773	0.75607	0.50187	0.188
Mof_C 	C 	0.42353	0.82427	0.55837	-0.122
Mof_H 	H 	0.43663	0.83237	0.58627	-0.018
Mof_H 	H 	0.39013	0.79677	0.56027	0.033
Mof_C 	C 	0.42183	0.86697	0.54097	0.186
Mof_H 	H 	0.40313	0.85737	0.51547	-0.017
Mof_H 	H 	0.45503	0.89277	0.53457	0.224
Mof_C 	C 	0.39923	0.88607	0.57027	-0.111
Mof_C 	C 	0.42613	0.91147	0.60377	-0.072
Mof_H 	H 	0.45873	0.91897	0.60627	0.07
Mof_C 	C 	0.40553	0.92617	0.63347	-0.048
Mof_C 	C 	0.35783	0.91527	0.62977	0.011
Mof_H 	H 	0.34363	0.92517	0.65007	0.027
Mof_C 	C 	0.33073	0.88957	0.59627	-0.099
Mof_C 	C 	0.35153	0.87507	0.56657	-0.096
Mof_H 	H 	0.33303	0.85757	0.54367	0.085
Mof_Co	Co	0.18833	0.86667	0.63367	-0.441
Mof_Fe	Fe	0.8028	0.6572	0.9656	2.198
Mof_O 	O 	0.85005	0.12249	0.84676	-0.515
Mof_O 	O 	0.7996	0.06699	0.88982	-0.543
Mof_O 	O 	0.7082	0.84922	0.00415	-0.539
Mof_O 	O 	0.69979	0.77991	0.02851	-0.531
Mof_O 	O 	0.80608	0.73173	0.89044	-0.521
Mof_O 	O 	0.78036	0.70526	0.95317	-0.523
Mof_O 	O 	0.76331	0.64493	0.01947	-0.277
Mof_C 	C 	0.8314	0.0814	0.8636	0.478
Mof_C 	C 	0.7154	0.8136	0.0029	0.474
Mof_C 	C 	0.7896	0.7337	0.9241	0.47
Mof_O 	O 	0.9557	0.0141	0.7753	-0.293
Mof_C 	C 	0.9003	0.0298	0.8104	-0.101
Mof_C 	C 	0.8869	0.0627	0.8234	0.002
Mof_H 	H 	0.9054	0.0957	0.8157	0.03
Mof_C 	C 	0.8463	0.0474	0.8477	-0.053
Mof_C 	C 	0.8192	0.9992	0.859	-0.126
Mof_H 	H 	0.7915	0.9888	0.8756	0.087
Mof_C 	C 	0.8327	0.9663	0.8459	0.11
Mof_C 	C 	0.8732	0.9816	0.8217	-0.044
Mof_H 	H 	0.8824	0.9591	0.8128	0.063
Mof_C 	C 	0.806	0.9144	0.8597	-0.177
Mof_H 	H 	0.7992	0.8933	0.8358	0.069
Mof_H 	H 	0.7747	0.9073	0.8714	-0.089
Mof_C 	C 	0.833	0.9021	0.8905	-0.104
Mof_H 	H 	0.8587	0.8994	0.8761	0.061
Mof_H 	H 	0.8491	0.9296	0.9095	0.168
Mof_C 	C 	0.8042	0.8568	0.9151	0.043
Mof_C 	C 	0.775	0.856	0.9465	0.004
Mof_H 	H 	0.7712	0.8832	0.9512	0.024
Mof_C 	C 	0.7513	0.8155	0.9711	-0.076
Mof_C 	C 	0.7568	0.7757	0.9642	0.027
Mof_H 	H 	0.7406	0.748	0.9811	0.022
Mof_C 	C 	0.7859	0.7762	0.9328	-0.009
Mof_C 	C 	0.8096	0.8169	0.9084	0.044
Mof_H 	H 	0.8295	0.8173	0.8869	-0.001
Mof_O 	O 	0.963	0.08895	0.7705	-0.434
Mof_H 	H 	0.9888	0.0967	0.7582	0.212
Mof_C 	C 	0.9497	0.0498	0.7903	0.44
Mof_O 	O 	0.982	0.039	0.7989	-0.206
Mof_C 	C 	0.9119	0.0373	0.8198	0.015
Mof_C 	C 	0.8903	0.065	0.827	0.019
Mof_H 	H 	0.9014	0.0947	0.8131	0.025
Mof_C 	C 	0.8526	0.0493	0.8546	-0.039
Mof_C 	C 	0.8364	0.0058	0.8749	0.051
Mof_H 	H 	0.8107	0.9951	0.8938	0.019
Mof_C 	C 	0.858	0.9781	0.8677	0.009
Mof_C 	C 	0.8958	0.9939	0.8402	-0.02
Mof_H 	H 	0.9106	0.975	0.8352	0.057
Mof_C 	C 	0.8424	0.9326	0.8917	-0.213
Mof_H 	H 	0.8343	0.9376	0.9196	0.01
Mof_H 	H 	0.8699	0.9267	0.8936	0.04
Mof_C 	C 	0.7997	0.8882	0.8743	0.122
Mof_H 	H 	0.8093	0.8791	0.8488	-0.006
Mof_H 	H 	0.7739	0.8956	0.8679	0.157
Mof_C 	C 	0.7806	0.8465	0.9036	-0.063
Mof_C 	C 	0.7552	0.848	0.9371	-0.015
Mof_H 	H 	0.7477	0.8731	0.9396	0.044
Mof_C 	C 	0.7405	0.8127	0.9668	-0.035
Mof_C 	C 	0.7514	0.7759	0.9631	0.014
Mof_H 	H 	0.7415	0.7518	0.9834	0.026
Mof_C 	C 	0.7771	0.7745	0.9296	-0.094
Mof_C 	C 	0.7916	0.8098	0.8999	-0.059
Mof_H 	H 	0.8091	0.8088	0.877	0.065
Mof_Co	Co	0.8	0.655	0.967	-0.441
Mof_Fe	Fe	0.46947	0.99053	0.29893	2.192
Mof_O 	O 	0.51672	0.45582	0.18009	-0.515
Mof_O 	O 	0.46627	0.40032	0.22315	-0.542
Mof_O 	O 	0.37487	0.18255	0.33748	-0.54
Mof_O 	O 	0.36646	0.11324	0.36184	-0.532
Mof_O 	O 	0.47275	0.06506	0.22377	-0.522
Mof_O 	O 	0.44703	0.03859	0.2865	-0.528
Mof_O 	O 	0.42998	0.97826	0.3528	-0.272
Mof_C 	C 	0.49807	0.41473	0.19693	0.481
Mof_C 	C 	0.38207	0.14693	0.33623	0.475
Mof_C 	C 	0.45627	0.06703	0.25743	0.469
Mof_O 	O 	0.62237	0.34743	0.10863	-0.3
Mof_C 	C 	0.56697	0.36313	0.14373	0.07
Mof_C 	C 	0.55357	0.39603	0.15673	0.012
Mof_H 	H 	0.57207	0.42903	0.14903	0.029
Mof_C 	C 	0.51297	0.38073	0.18103	-0.064
Mof_C 	C 	0.48587	0.33253	0.19233	-0.178
Mof_H 	H 	0.45817	0.32213	0.20893	0.114
Mof_C 	C 	0.49937	0.29963	0.17923	-0.092
Mof_C 	C 	0.53987	0.31493	0.15503	0.356
Mof_H 	H 	0.54907	0.29243	0.14613	-0.066
Mof_C 	C 	0.47267	0.24773	0.19303	-0.135
Mof_H 	H 	0.46587	0.22663	0.16913	0.053
Mof_H 	H 	0.44137	0.24063	0.20473	-0.178
Mof_C 	C 	0.49967	0.23543	0.22383	-0.289
Mof_H 	H 	0.52537	0.23273	0.20943	0.108
Mof_H 	H 	0.51577	0.26293	0.24283	0.184
Mof_C 	C 	0.47087	0.19013	0.24843	0.126
Mof_C 	C 	0.44167	0.18933	0.27983	0.057
Mof_H 	H 	0.43787	0.21653	0.28453	0.005
Mof_C 	C 	0.41797	0.14883	0.30443	-0.062
Mof_C 	C 	0.42347	0.10903	0.29753	0.027
Mof_H 	H 	0.40727	0.08133	0.31443	0.021
Mof_C 	C 	0.45257	0.10953	0.26613	-0.002
Mof_C 	C 	0.47627	0.15023	0.24173	0.067
Mof_H 	H 	0.49617	0.15063	0.22023	-0.019
Mof_O 	O 	0.62967	0.42228	0.10383	-0.435
Mof_H 	H 	0.65547	0.43003	0.09153	0.2
Mof_C 	C 	0.61637	0.38313	0.12363	0.452
Mof_O 	O 	0.64867	0.37233	0.13223	-0.206
Mof_C 	C 	0.57857	0.37063	0.15313	-0.135
Mof_C 	C 	0.55697	0.39833	0.16033	0.007
Mof_H 	H 	0.56807	0.42803	0.14643	0.027
Mof_C 	C 	0.51927	0.38263	0.18793	-0.032
Mof_C 	C 	0.50307	0.33913	0.20823	0.142
Mof_H 	H 	0.47737	0.32843	0.22713	-0.021
Mof_C 	C 	0.52467	0.31143	0.20103	0.148
Mof_C 	C 	0.56247	0.32723	0.17353	-0.436
Mof_H 	H 	0.57727	0.30833	0.16853	0.191
Mof_C 	C 	0.50907	0.26593	0.22503	-0.124
Mof_H 	H 	0.50097	0.27093	0.25293	-0.019
Mof_H 	H 	0.53657	0.26003	0.22693	0.034
Mof_C 	C 	0.46637	0.22153	0.20763	0.189
Mof_H 	H 	0.47597	0.21243	0.18213	-0.017
Mof_H 	H 	0.44057	0.22893	0.20123	0.226
Mof_C 	C 	0.44727	0.17983	0.23693	-0.117
Mof_C 	C 	0.42187	0.18133	0.27043	-0.074
Mof_H 	H 	0.41437	0.20643	0.27293	0.07
Mof_C 	C 	0.40717	0.14603	0.30013	-0.048
Mof_C 	C 	0.41807	0.10923	0.29643	0.011
Mof_H 	H 	0.40817	0.08513	0.31673	0.025
Mof_C 	C 	0.44377	0.10783	0.26293	-0.099
Mof_C 	C 	0.45827	0.14313	0.23323	-0.098
Mof_H 	H 	0.47577	0.14213	0.21033	0.085
Mof_Co	Co	0.46667	0.98833	0.30033	-0.432
Mof_Fe	Fe	0.13613	0.32387	0.63227	2.198
Mof_O 	O 	0.18338	0.78916	0.51343	-0.516
Mof_O 	O 	0.13293	0.73366	0.55649	-0.543
Mof_O 	O 	0.04153	0.51589	0.67082	-0.543
Mof_O 	O 	0.03312	0.44658	0.69518	-0.533
Mof_O 	O 	0.13941	0.3984	0.55711	-0.521
Mof_O 	O 	0.11369	0.37193	0.61984	-0.524
Mof_O 	O 	0.09664	0.3116	0.68614	-0.279
Mof_C 	C 	0.16473	0.74807	0.53027	0.481
Mof_C 	C 	0.04873	0.48027	0.66957	0.475
Mof_C 	C 	0.12293	0.40037	0.59077	0.468
Mof_O 	O 	0.28903	0.68077	0.44197	-0.3
Mof_C 	C 	0.23363	0.69647	0.47707	0.073
Mof_C 	C 	0.22023	0.72937	0.49007	0.012
Mof_H 	H 	0.23873	0.76237	0.48237	0.029
Mof_C 	C 	0.17963	0.71407	0.51437	-0.065
Mof_C 	C 	0.15253	0.66587	0.52567	-0.182
Mof_H 	H 	0.12483	0.65547	0.54227	0.114
Mof_C 	C 	0.16603	0.63297	0.51257	-0.097
Mof_C 	C 	0.20653	0.64827	0.48837	0.364
Mof_H 	H 	0.21573	0.62577	0.47947	-0.069
Mof_C 	C 	0.13933	0.58107	0.52637	-0.132
Mof_H 	H 	0.13253	0.55997	0.50247	0.052
Mof_H 	H 	0.10803	0.57397	0.53807	-0.182
Mof_C 	C 	0.16633	0.56877	0.55717	-0.294
Mof_H 	H 	0.19203	0.56607	0.54277	0.109
Mof_H 	H 	0.18243	0.59627	0.57617	0.186
Mof_C 	C 	0.13753	0.52347	0.58177	0.131
Mof_C 	C 	0.10833	0.52267	0.61317	0.059
Mof_H 	H 	0.10453	0.54987	0.61787	0.005
Mof_C 	C 	0.08463	0.48217	0.63777	-0.063
Mof_C 	C 	0.09013	0.44237	0.63087	0.027
Mof_H 	H 	0.07393	0.41467	0.64777	0.022
Mof_C 	C 	0.11923	0.44287	0.59947	-0.001
Mof_C 	C 	0.14293	0.48357	0.57507	0.068
Mof_H 	H 	0.16283	0.48397	0.55357	-0.02
Mof_O 	O 	0.29633	0.75562	0.43717	-0.435
Mof_H 	H 	0.32213	0.76337	0.42487	0.2
Mof_C 	C 	0.28303	0.71647	0.45697	0.452
Mof_O 	O 	0.31533	0.70567	0.46557	-0.205
Mof_C 	C 	0.24523	0.70397	0.48647	-0.139
Mof_C 	C 	0.22363	0.73167	0.49367	0.006
Mof_H 	H 	0.23473	0.76137	0.47977	0.028
Mof_C 	C 	0.18593	0.71597	0.52127	-0.032
Mof_C 	C 	0.16973	0.67247	0.54157	0.146
Mof_H 	H 	0.14403	0.66177	0.56047	-0.022
Mof_C 	C 	0.19133	0.64477	0.53437	0.152
Mof_C 	C 	0.22913	0.66057	0.50687	-0.444
Mof_H 	H 	0.24393	0.64167	0.50187	0.194
Mof_C 	C 	0.17573	0.59927	0.55837	-0.125
Mof_H 	H 	0.16763	0.60427	0.58627	-0.02
Mof_H 	H 	0.20323	0.59337	0.56027	0.034
Mof_C 	C 	0.13303	0.55487	0.54097	0.191
Mof_H 	H 	0.14263	0.54577	0.51547	-0.018
Mof_H 	H 	0.10723	0.56227	0.53457	0.227
Mof_C 	C 	0.11393	0.51317	0.57027	-0.122
Mof_C 	C 	0.08853	0.51467	0.60377	-0.077
Mof_H 	H 	0.08103	0.53977	0.60627	0.07
Mof_C 	C 	0.07383	0.47937	0.63347	-0.048
Mof_C 	C 	0.08473	0.44257	0.62977	0.011
Mof_H 	H 	0.07483	0.41847	0.65007	0.026
Mof_C 	C 	0.11043	0.44117	0.59627	-0.099
Mof_C 	C 	0.12493	0.47647	0.56657	-0.1
Mof_H 	H 	0.14243	0.47547	0.54367	0.086
Mof_Co	Co	0.13333	0.32167	0.63367	-0.441
Mof_Fe	Fe	0.1456	0.3428	0.5344	2.198
Mof_O 	O 	0.72756	0.87751	0.65324	-0.516
Mof_O 	O 	0.73261	0.93301	0.61018	-0.54
Mof_O 	O 	0.85898	0.15078	0.49585	-0.54
Mof_O 	O 	0.91988	0.22009	0.47149	-0.531
Mof_O 	O 	0.07435	0.26827	0.60956	-0.523
Mof_O 	O 	0.0751	0.29474	0.54683	-0.527
Mof_O 	O 	0.11838	0.35507	0.48053	-0.278
Mof_C 	C 	0.75	0.9186	0.6364	0.484
Mof_C 	C 	0.9018	0.1864	0.4971	0.478
Mof_C 	C 	0.0559	0.2663	0.5759	0.473
Mof_O 	O 	0.9416	0.9859	0.7247	-0.292
Mof_C 	C 	0.8705	0.9702	0.6896	0.238
Mof_C 	C 	0.8242	0.9373	0.6766	0.022
Mof_H 	H 	0.8097	0.9043	0.6843	0.027
Mof_C 	C 	0.7989	0.9526	0.6523	-0.073
Mof_C 	C 	0.82	0.0008	0.641	-0.225
Mof_H 	H 	0.8027	0.0112	0.6244	0.137
Mof_C 	C 	0.8664	0.0337	0.6541	-0.284
Mof_C 	C 	0.8916	0.0184	0.6783	0.732
Mof_H 	H 	0.9233	0.0409	0.6872	-0.185
Mof_C 	C 	0.8916	0.0856	0.6403	-0.099
Mof_H 	H 	0.9059	0.1067	0.6642	0.04
Mof_H 	H 	0.8674	0.0927	0.6286	-0.273
Mof_C 	C 	0.9309	0.0979	0.6095	-0.47
Mof_H 	H 	0.9593	0.1006	0.6239	0.158
Mof_H 	H 	0.9195	0.0704	0.5905	0.205
Mof_C 	C 	0.9474	0.1432	0.5849	0.206
Mof_C 	C 	0.919	0.144	0.5535	0.113
Mof_H 	H 	0.888	0.1168	0.5488	-0.014
Mof_C 	C 	0.9358	0.1845	0.5289	-0.049
Mof_C 	C 	0.9811	0.2243	0.5358	0.033
Mof_H 	H 	0.9926	0.252	0.5189	0.021
Mof_C 	C 	0.0097	0.2238	0.5672	-0.008
Mof_C 	C 	0.9927	0.1831	0.5916	0.105
Mof_H 	H 	0.0122	0.1827	0.6131	-0.041
Mof_O 	O 	0.87405	0.91105	0.7295	-0.436
Mof_H 	H 	0.8921	0.9033	0.7418	0.2
Mof_C 	C 	0.8999	0.9502	0.7097	0.458
Mof_O 	O 	0.943	0.961	0.7011	-0.193
Mof_C 	C 	0.8746	0.9627	0.6802	-0.278
Mof_C 	C 	0.8253	0.935	0.673	-0.006
Mof_H 	H 	0.8067	0.9053	0.6869	0.031
Mof_C 	C 	0.8033	0.9507	0.6454	-0.025
Mof_C 	C 	0.8306	0.9942	0.6251	0.224
Mof_H 	H 	0.8156	0.0049	0.6062	-0.057
Mof_C 	C 	0.8799	0.0219	0.6323	0.288
Mof_C 	C 	0.9019	0.0061	0.6598	-0.833
Mof_H 	H 	0.9356	0.025	0.6648	0.323
Mof_C 	C 	0.9098	0.0674	0.6083	-0.046
Mof_H 	H 	0.8967	0.0624	0.5804	-0.046
Mof_H 	H 	0.9432	0.0733	0.6064	0.031
Mof_C 	C 	0.9115	0.1118	0.6257	0.263
Mof_H 	H 	0.9302	0.1209	0.6512	-0.029
Mof_H 	H 	0.8783	0.1044	0.6321	0.301
Mof_C 	C 	0.9341	0.1535	0.5964	-0.179
Mof_C 	C 	0.9072	0.152	0.5629	-0.13
Mof_H 	H 	0.8746	0.1269	0.5604	0.095
Mof_C 	C 	0.9278	0.1873	0.5332	-0.064
Mof_C 	C 	0.9755	0.2241	0.5369	0.017
Mof_H 	H 	0.9897	0.2482	0.5166	0.028
Mof_C 	C 	0.0026	0.2255	0.5704	-0.113
Mof_C 	C 	0.9818	0.1902	0.6001	-0.119
Mof_H 	H 	0.0003	0.1912	0.623	0.093
Mof_Co	Co	0.145	0.345	0.533	-0.441
Mof_Fe	Fe	0.81227	0.67613	0.86773	2.198
Mof_O 	O 	0.39423	0.21084	0.98657	-0.515
Mof_O 	O 	0.39928	0.26634	0.94351	-0.542
Mof_O 	O 	0.52565	0.48411	0.82918	-0.54
Mof_O 	O 	0.58655	0.55342	0.80482	-0.531
Mof_O 	O 	0.74102	0.6016	0.94289	-0.52
Mof_O 	O 	0.74177	0.62807	0.88016	-0.523
Mof_O 	O 	0.78505	0.6884	0.81386	-0.278
Mof_C 	C 	0.41667	0.25193	0.96973	0.481
Mof_C 	C 	0.56847	0.51973	0.83043	0.475
Mof_C 	C 	0.72257	0.59963	0.90923	0.468
Mof_O 	O 	0.60827	0.31923	0.05803	-0.3
Mof_C 	C 	0.53717	0.30353	0.02293	0.07
Mof_C 	C 	0.49087	0.27063	0.00993	0.012
Mof_H 	H 	0.47637	0.23763	0.01763	0.029
Mof_C 	C 	0.46557	0.28593	0.98563	-0.064
Mof_C 	C 	0.48667	0.33413	0.97433	-0.178
Mof_H 	H 	0.46937	0.34453	0.95773	0.114
Mof_C 	C 	0.53307	0.36703	0.98743	-0.092
Mof_C 	C 	0.55827	0.35173	0.01163	0.356
Mof_H 	H 	0.58997	0.37423	0.02053	-0.066
Mof_C 	C 	0.55827	0.41893	0.97363	-0.135
Mof_H 	H 	0.57257	0.44003	0.99753	0.053
Mof_H 	H 	0.53407	0.42603	0.96193	-0.178
Mof_C 	C 	0.59757	0.43123	0.94283	-0.289
Mof_H 	H 	0.62597	0.43393	0.95723	0.108
Mof_H 	H 	0.58617	0.40373	0.92383	0.184
Mof_C 	C 	0.61407	0.47653	0.91823	0.125
Mof_C 	C 	0.58567	0.47733	0.88683	0.057
Mof_H 	H 	0.55467	0.45013	0.88213	0.005
Mof_C 	C 	0.60247	0.51783	0.86223	-0.062
Mof_C 	C 	0.64777	0.55763	0.86913	0.027
Mof_H 	H 	0.65927	0.58533	0.85223	0.022
Mof_C 	C 	0.67637	0.55713	0.90053	-0.001
Mof_C 	C 	0.65937	0.51643	0.92493	0.067
Mof_H 	H 	0.67887	0.51603	0.94643	-0.02
Mof_O 	O 	0.54072	0.24438	0.06283	-0.435
Mof_H 	H 	0.55877	0.23663	0.07513	0.2
Mof_C 	C 	0.56657	0.28353	0.04303	0.452
Mof_O 	O 	0.60967	0.29433	0.03443	-0.206
Mof_C 	C 	0.54127	0.29603	0.01353	-0.135
Mof_C 	C 	0.49197	0.26833	0.00633	0.007
Mof_H 	H 	0.47337	0.23863	0.02023	0.027
Mof_C 	C 	0.46997	0.28403	0.97873	-0.032
Mof_C 	C 	0.49727	0.32753	0.95843	0.142
Mof_H 	H 	0.48227	0.33823	0.93953	-0.021
Mof_C 	C 	0.54657	0.35523	0.96563	0.148
Mof_C 	C 	0.56857	0.33943	0.99313	-0.436
Mof_H 	H 	0.60227	0.35833	0.99813	0.191
Mof_C 	C 	0.57647	0.40073	0.94163	-0.124
Mof_H 	H 	0.56337	0.39573	0.91373	-0.019
Mof_H 	H 	0.60987	0.40663	0.93973	0.033
Mof_C 	C 	0.57817	0.44513	0.95903	0.189
Mof_H 	H 	0.59687	0.45423	0.98453	-0.017
Mof_H 	H 	0.54497	0.43773	0.96543	0.225
Mof_C 	C 	0.60077	0.48683	0.92973	-0.117
Mof_C 	C 	0.57387	0.48533	0.89623	-0.074
Mof_H 	H 	0.54127	0.46023	0.89373	0.07
Mof_C 	C 	0.59447	0.52063	0.86653	-0.048
Mof_C 	C 	0.64217	0.55743	0.87023	0.011
Mof_H 	H 	0.65637	0.58153	0.84993	0.026
Mof_C 	C 	0.66927	0.55883	0.90373	-0.099
Mof_C 	C 	0.64847	0.52353	0.93343	-0.098
Mof_H 	H 	0.66697	0.52453	0.95633	0.085
Mof_Co	Co	0.81167	0.67833	0.86633	-0.441
Mof_Fe	Fe	0.47893	0.00947	0.20107	2.201
Mof_O 	O 	0.06089	0.54418	0.31991	-0.518
Mof_O 	O 	0.06594	0.59968	0.27685	-0.544
Mof_O 	O 	0.19231	0.81745	0.16252	-0.54
Mof_O 	O 	0.25321	0.88676	0.13816	-0.53
Mof_O 	O 	0.40768	0.93494	0.27623	-0.518
Mof_O 	O 	0.40843	0.96141	0.2135	-0.518
Mof_O 	O 	0.45171	0.02174	0.1472	-0.283
Mof_C 	C 	0.08333	0.58527	0.30307	0.481
Mof_C 	C 	0.23513	0.85307	0.16377	0.475
Mof_C 	C 	0.38923	0.93297	0.24257	0.468
Mof_O 	O 	0.27493	0.65257	0.39137	-0.3
Mof_C 	C 	0.20383	0.63687	0.35627	0.07
Mof_C 	C 	0.15753	0.60397	0.34327	0.012
Mof_H 	H 	0.14303	0.57097	0.35097	0.028
Mof_C 	C 	0.13223	0.61927	0.31897	-0.064
Mof_C 	C 	0.15333	0.66747	0.30767	-0.177
Mof_H 	H 	0.13603	0.67787	0.29107	0.112
Mof_C 	C 	0.19973	0.70037	0.32077	-0.093
Mof_C 	C 	0.22493	0.68507	0.34497	0.355
Mof_H 	H 	0.25663	0.70757	0.35387	-0.066
Mof_C 	C 	0.22493	0.75227	0.30697	-0.134
Mof_H 	H 	0.23923	0.77337	0.33087	0.053
Mof_H 	H 	0.20073	0.75937	0.29527	-0.179
Mof_C 	C 	0.26423	0.76457	0.27617	-0.29
Mof_H 	H 	0.29263	0.76727	0.29057	0.108
Mof_H 	H 	0.25283	0.73707	0.25717	0.184
Mof_C 	C 	0.28073	0.80987	0.25157	0.125
Mof_C 	C 	0.25233	0.81067	0.22017	0.057
Mof_H 	H 	0.22133	0.78347	0.21547	0.005
Mof_C 	C 	0.26913	0.85117	0.19557	-0.061
Mof_C 	C 	0.31443	0.89097	0.20247	0.028
Mof_H 	H 	0.32593	0.91867	0.18557	0.022
Mof_C 	C 	0.34303	0.89047	0.23387	-0
Mof_C 	C 	0.32603	0.84977	0.25827	0.067
Mof_H 	H 	0.34553	0.84937	0.27977	-0.02
Mof_O 	O 	0.20738	0.57772	0.39617	-0.435
Mof_H 	H 	0.22543	0.56997	0.40847	0.2
Mof_C 	C 	0.23323	0.61687	0.37637	0.452
Mof_O 	O 	0.27633	0.62767	0.36777	-0.206
Mof_C 	C 	0.20793	0.62937	0.34687	-0.136
Mof_C 	C 	0.15863	0.60167	0.33967	0.007
Mof_H 	H 	0.14003	0.57197	0.35357	0.027
Mof_C 	C 	0.13663	0.61737	0.31207	-0.033
Mof_C 	C 	0.16393	0.66087	0.29177	0.141
Mof_H 	H 	0.14893	0.67157	0.27287	-0.021
Mof_C 	C 	0.21323	0.68857	0.29897	0.149
Mof_C 	C 	0.23523	0.67277	0.32647	-0.436
Mof_H 	H 	0.26893	0.69167	0.33147	0.191
Mof_C 	C 	0.24313	0.73407	0.27497	-0.123
Mof_H 	H 	0.23003	0.72907	0.24707	-0.019
Mof_H 	H 	0.27653	0.73997	0.27307	0.033
Mof_C 	C 	0.24483	0.77847	0.29237	0.19
Mof_H 	H 	0.26353	0.78757	0.31787	-0.017
Mof_H 	H 	0.21163	0.77107	0.29877	0.225
Mof_C 	C 	0.26743	0.82017	0.26307	-0.116
Mof_C 	C 	0.24053	0.81867	0.22957	-0.075
Mof_H 	H 	0.20793	0.79357	0.22707	0.07
Mof_C 	C 	0.26113	0.85397	0.19987	-0.048
Mof_C 	C 	0.30883	0.89077	0.20357	0.01
Mof_H 	H 	0.32303	0.91487	0.18327	0.027
Mof_C 	C 	0.33593	0.89217	0.23707	-0.099
Mof_C 	C 	0.31513	0.85687	0.26677	-0.099
Mof_H 	H 	0.33363	0.85787	0.28967	0.086
Mof_Co	Co	0.47833	0.01167	0.19967	-0.447
Mof_Fe	Fe	0.1972	0.8544	0.5344	2.198
Mof_O 	O 	0.14995	0.27244	0.65324	-0.516
Mof_O 	O 	0.2004	0.26739	0.61018	-0.543
Mof_O 	O 	0.2918	0.14102	0.49585	-0.54
Mof_O 	O 	0.30021	0.08012	0.47149	-0.532
Mof_O 	O 	0.19392	0.92565	0.60956	-0.518
Mof_O 	O 	0.21964	0.9249	0.54683	-0.519
Mof_O 	O 	0.23669	0.88162	0.48053	-0.276
Mof_C 	C 	0.1686	0.25	0.6364	0.481
Mof_C 	C 	0.2846	0.0982	0.4971	0.473
Mof_C 	C 	0.2104	0.9441	0.5759	0.462
Mof_O 	O 	0.0443	0.0584	0.7247	-0.296
Mof_C 	C 	0.0997	0.1295	0.6896	0.073
Mof_C 	C 	0.1131	0.1758	0.6766	0.012
Mof_H 	H 	0.0946	0.1903	0.6843	0.028
Mof_C 	C 	0.1537	0.2011	0.6523	-0.066
Mof_C 	C 	0.1808	0.18	0.641	-0.181
Mof_H 	H 	0.2085	0.1973	0.6244	0.115
Mof_C 	C 	0.1673	0.1336	0.6541	-0.098
Mof_C 	C 	0.1268	0.1084	0.6783	0.371
Mof_H 	H 	0.1176	0.0767	0.6872	-0.072
Mof_C 	C 	0.194	0.1084	0.6403	-0.129
Mof_H 	H 	0.2008	0.0941	0.6642	0.052
Mof_H 	H 	0.2253	0.1326	0.6286	-0.172
Mof_C 	C 	0.167	0.0691	0.6095	-0.291
Mof_H 	H 	0.1413	0.0407	0.6239	0.104
Mof_H 	H 	0.1509	0.0805	0.5905	0.178
Mof_C 	C 	0.1958	0.0526	0.5849	0.126
Mof_C 	C 	0.225	0.081	0.5535	0.054
Mof_H 	H 	0.2288	0.112	0.5488	0.006
Mof_C 	C 	0.2487	0.0642	0.5289	-0.06
Mof_C 	C 	0.2432	0.0189	0.5358	0.022
Mof_H 	H 	0.2594	0.0074	0.5189	0.023
Mof_C 	C 	0.2141	0.9903	0.5672	0.015
Mof_C 	C 	0.1904	0.0073	0.5916	0.051
Mof_H 	H 	0.1705	0.9878	0.6131	-0.016
Mof_O 	O 	0.037	0.12595	0.7295	-0.43
Mof_H 	H 	0.0112	0.1079	0.7418	0.187
Mof_C 	C 	0.0503	0.1001	0.7097	0.449
Mof_O 	O 	0.018	0.057	0.7011	-0.213
Mof_C 	C 	0.0881	0.1254	0.6802	-0.14
Mof_C 	C 	0.1097	0.1747	0.673	0.007
Mof_H 	H 	0.0986	0.1933	0.6869	0.027
Mof_C 	C 	0.1474	0.1967	0.6454	-0.032
Mof_C 	C 	0.1636	0.1694	0.6251	0.147
Mof_H 	H 	0.1893	0.1844	0.6062	-0.024
Mof_C 	C 	0.142	0.1201	0.6323	0.147
Mof_C 	C 	0.1042	0.0981	0.6598	-0.449
Mof_H 	H 	0.0894	0.0644	0.6648	0.192
Mof_C 	C 	0.1576	0.0902	0.6083	-0.113
Mof_H 	H 	0.1657	0.1033	0.5804	-0.021
Mof_H 	H 	0.1301	0.0568	0.6064	0.03
Mof_C 	C 	0.2003	0.0885	0.6257	0.181
Mof_H 	H 	0.1907	0.0698	0.6512	-0.017
Mof_H 	H 	0.2261	0.1217	0.6321	0.219
Mof_C 	C 	0.2194	0.0659	0.5964	-0.107
Mof_C 	C 	0.2448	0.0928	0.5629	-0.078
Mof_H 	H 	0.2523	0.1254	0.5604	0.07
Mof_C 	C 	0.2595	0.0722	0.5332	-0.046
Mof_C 	C 	0.2486	0.0245	0.5369	0
Mof_H 	H 	0.2585	0.0103	0.5166	0.025
Mof_C 	C 	0.2229	0.9974	0.5704	-0.09
Mof_C 	C 	0.2084	0.0182	0.6001	-0.117
Mof_H 	H 	0.1909	0.9997	0.623	0.098
Mof_Co	Co	0.2	0.855	0.533	-0.441
Mof_Fe	Fe	0.86387	0.18773	0.86773	2.198
Mof_O 	O 	0.81662	0.60577	0.98657	-0.515
Mof_O 	O 	0.86707	0.60072	0.94351	-0.542
Mof_O 	O 	0.95847	0.47435	0.82918	-0.535
Mof_O 	O 	0.96688	0.41345	0.80482	-0.525
Mof_O 	O 	0.86059	0.25898	0.94289	-0.52
Mof_O 	O 	0.88631	0.25823	0.88016	-0.522
Mof_O 	O 	0.90336	0.21495	0.81386	-0.275
Mof_C 	C 	0.83527	0.58333	0.96973	0.481
Mof_C 	C 	0.95127	0.43153	0.83043	0.475
Mof_C 	C 	0.87707	0.27743	0.90923	0.469
Mof_O 	O 	0.71097	0.39173	0.05803	-0.3
Mof_C 	C 	0.76637	0.46283	0.02293	0.065
Mof_C 	C 	0.77977	0.50913	0.00993	0.012
Mof_H 	H 	0.76127	0.52363	0.01763	0.029
Mof_C 	C 	0.82037	0.53443	0.98563	-0.063
Mof_C 	C 	0.84747	0.51333	0.97433	-0.173
Mof_H 	H 	0.87517	0.53063	0.95773	0.112
Mof_C 	C 	0.83397	0.46693	0.98743	-0.086
Mof_C 	C 	0.79347	0.44173	0.01163	0.345
Mof_H 	H 	0.78427	0.41003	0.02053	-0.062
Mof_C 	C 	0.86067	0.44173	0.97363	-0.138
Mof_H 	H 	0.86747	0.42743	0.99753	0.055
Mof_H 	H 	0.89197	0.46593	0.96193	-0.174
Mof_C 	C 	0.83367	0.40243	0.94283	-0.283
Mof_H 	H 	0.80797	0.37403	0.95723	0.106
Mof_H 	H 	0.81757	0.41383	0.92383	0.181
Mof_C 	C 	0.86247	0.38593	0.91823	0.119
Mof_C 	C 	0.89167	0.41433	0.88683	0.055
Mof_H 	H 	0.89547	0.44533	0.88213	0.006
Mof_C 	C 	0.91537	0.39753	0.86223	-0.06
Mof_C 	C 	0.90987	0.35223	0.86913	0.028
Mof_H 	H 	0.92607	0.34073	0.85223	0.022
Mof_C 	C 	0.88077	0.32363	0.90053	-0
Mof_C 	C 	0.85707	0.34063	0.92493	0.065
Mof_H 	H 	0.83717	0.32113	0.94643	-0.019
Mof_O 	O 	0.70367	0.45928	0.06283	-0.434
Mof_H 	H 	0.67787	0.44123	0.07513	0.2
Mof_C 	C 	0.71697	0.43343	0.04303	0.451
Mof_O 	O 	0.68467	0.39033	0.03443	-0.206
Mof_C 	C 	0.75477	0.45873	0.01353	-0.131
Mof_C 	C 	0.77637	0.50803	0.00633	0.007
Mof_H 	H 	0.76527	0.52663	0.02023	0.027
Mof_C 	C 	0.81407	0.53003	0.97873	-0.032
Mof_C 	C 	0.83027	0.50273	0.95843	0.136
Mof_H 	H 	0.85597	0.51773	0.93953	-0.019
Mof_C 	C 	0.80867	0.45343	0.96563	0.144
Mof_C 	C 	0.77087	0.43143	0.99313	-0.425
Mof_H 	H 	0.75607	0.39773	0.99813	0.187
Mof_C 	C 	0.82427	0.42353	0.94163	-0.122
Mof_H 	H 	0.83237	0.43663	0.91373	-0.018
Mof_H 	H 	0.79677	0.39013	0.93973	0.033
Mof_C 	C 	0.86697	0.42183	0.95903	0.186
Mof_H 	H 	0.85737	0.40313	0.98453	-0.017
Mof_H 	H 	0.89277	0.45503	0.96543	0.224
Mof_C 	C 	0.88607	0.39923	0.92973	-0.111
Mof_C 	C 	0.91147	0.42613	0.89623	-0.072
Mof_H 	H 	0.91897	0.45873	0.89373	0.07
Mof_C 	C 	0.92617	0.40553	0.86653	-0.048
Mof_C 	C 	0.91527	0.35783	0.87023	0.011
Mof_H 	H 	0.92517	0.34363	0.84993	0.027
Mof_C 	C 	0.88957	0.33073	0.90373	-0.099
Mof_C 	C 	0.87507	0.35153	0.93343	-0.096
Mof_H 	H 	0.85757	0.33303	0.95633	0.085
Mof_Co	Co	0.86667	0.18833	0.86633	-0.441
Mof_Fe	Fe	0.53053	0.52107	0.20107	2.198
Mof_O 	O 	0.48328	0.93911	0.31991	-0.512
Mof_O 	O 	0.53373	0.93406	0.27685	-0.538
Mof_O 	O 	0.62513	0.80769	0.16252	-0.54
Mof_O 	O 	0.63354	0.74679	0.13816	-0.531
Mof_O 	O 	0.52725	0.59232	0.27623	-0.52
Mof_O 	O 	0.55297	0.59157	0.2135	-0.523
Mof_O 	O 	0.57002	0.54829	0.1472	-0.277
Mof_C 	C 	0.50193	0.91667	0.30307	0.48
Mof_C 	C 	0.61793	0.76487	0.16377	0.475
Mof_C 	C 	0.54373	0.61077	0.24257	0.468
Mof_O 	O 	0.37763	0.72507	0.39137	-0.3
Mof_C 	C 	0.43303	0.79617	0.35627	0.069
Mof_C 	C 	0.44643	0.84247	0.34327	0.012
Mof_H 	H 	0.42793	0.85697	0.35097	0.029
Mof_C 	C 	0.48703	0.86777	0.31897	-0.064
Mof_C 	C 	0.51413	0.84667	0.30767	-0.178
Mof_H 	H 	0.54183	0.86397	0.29107	0.114
Mof_C 	C 	0.50063	0.80027	0.32077	-0.091
Mof_C 	C 	0.46013	0.77507	0.34497	0.355
Mof_H 	H 	0.45093	0.74337	0.35387	-0.066
Mof_C 	C 	0.52733	0.77507	0.30697	-0.135
Mof_H 	H 	0.53413	0.76077	0.33087	0.054
Mof_H 	H 	0.55863	0.79927	0.29527	-0.177
Mof_C 	C 	0.50033	0.73577	0.27617	-0.288
Mof_H 	H 	0.47463	0.70737	0.29057	0.108
Mof_H 	H 	0.48423	0.74717	0.25717	0.183
Mof_C 	C 	0.52913	0.71927	0.25157	0.124
Mof_C 	C 	0.55833	0.74767	0.22017	0.057
Mof_H 	H 	0.56213	0.77867	0.21547	0.005
Mof_C 	C 	0.58203	0.73087	0.19557	-0.062
Mof_C 	C 	0.57653	0.68557	0.20247	0.027
Mof_H 	H 	0.59273	0.67407	0.18557	0.022
Mof_C 	C 	0.54743	0.65697	0.23387	-0.001
Mof_C 	C 	0.52373	0.67397	0.25827	0.066
Mof_H 	H 	0.50383	0.65447	0.27977	-0.019
Mof_O 	O 	0.37033	0.79262	0.39617	-0.434
Mof_H 	H 	0.34453	0.77457	0.40847	0.2
Mof_C 	C 	0.38363	0.76677	0.37637	0.451
Mof_O 	O 	0.35133	0.72367	0.36777	-0.206
Mof_C 	C 	0.42143	0.79207	0.34687	-0.134
Mof_C 	C 	0.44303	0.84137	0.33967	0.007
Mof_H 	H 	0.43193	0.85997	0.35357	0.027
Mof_C 	C 	0.48073	0.86337	0.31207	-0.031
Mof_C 	C 	0.49693	0.83607	0.29177	0.142
Mof_H 	H 	0.52263	0.85107	0.27287	-0.021
Mof_C 	C 	0.47533	0.78677	0.29897	0.147
Mof_C 	C 	0.43753	0.76477	0.32647	-0.435
Mof_H 	H 	0.42273	0.73107	0.33147	0.191
Mof_C 	C 	0.49093	0.75687	0.27497	-0.123
Mof_H 	H 	0.49903	0.76997	0.24707	-0.019
Mof_H 	H 	0.46343	0.72347	0.27307	0.033
Mof_C 	C 	0.53363	0.75517	0.29237	0.188
Mof_H 	H 	0.52403	0.73647	0.31787	-0.017
Mof_H 	H 	0.55943	0.78837	0.29877	0.225
Mof_C 	C 	0.55273	0.73257	0.26307	-0.116
Mof_C 	C 	0.57813	0.75947	0.22957	-0.074
Mof_H 	H 	0.58563	0.79207	0.22707	0.07
Mof_C 	C 	0.59283	0.73887	0.19987	-0.048
Mof_C 	C 	0.58193	0.69117	0.20357	0.011
Mof_H 	H 	0.59183	0.67697	0.18327	0.026
Mof_C 	C 	0.55623	0.66407	0.23707	-0.099
Mof_C 	C 	0.54173	0.68487	0.26677	-0.098
Mof_H 	H 	0.52423	0.66637	0.28967	0.085
Mof_Co	Co	0.53333	0.52167	0.19967	-0.441
Mof_Fe	Fe	0.6572	0.8028	0.5344	2.198
Mof_O 	O 	0.12249	0.85005	0.65324	-0.515
Mof_O 	O 	0.06699	0.7996	0.61018	-0.543
Mof_O 	O 	0.84922	0.7082	0.49585	-0.539
Mof_O 	O 	0.77991	0.69979	0.47149	-0.531
Mof_O 	O 	0.73173	0.80608	0.60956	-0.521
Mof_O 	O 	0.70526	0.78036	0.54683	-0.523
Mof_O 	O 	0.64493	0.76331	0.48053	-0.277
Mof_C 	C 	0.0814	0.8314	0.6364	0.478
Mof_C 	C 	0.8136	0.7154	0.4971	0.474
Mof_C 	C 	0.7337	0.7896	0.5759	0.471
Mof_O 	O 	0.0141	0.9557	0.7247	-0.293
Mof_C 	C 	0.0298	0.9003	0.6896	-0.103
Mof_C 	C 	0.0627	0.8869	0.6766	0.002
Mof_H 	H 	0.0957	0.9054	0.6843	0.03
Mof_C 	C 	0.0474	0.8463	0.6523	-0.053
Mof_C 	C 	0.9992	0.8192	0.641	-0.125
Mof_H 	H 	0.9888	0.7915	0.6244	0.087
Mof_C 	C 	0.9663	0.8327	0.6541	0.111
Mof_C 	C 	0.9816	0.8732	0.6783	-0.047
Mof_H 	H 	0.9591	0.8824	0.6872	0.063
Mof_C 	C 	0.9144	0.806	0.6403	-0.177
Mof_H 	H 	0.8933	0.7992	0.6642	0.069
Mof_H 	H 	0.9073	0.7747	0.6286	-0.089
Mof_C 	C 	0.9021	0.833	0.6095	-0.102
Mof_H 	H 	0.8994	0.8587	0.6239	0.061
Mof_H 	H 	0.9296	0.8491	0.5905	0.167
Mof_C 	C 	0.8568	0.8042	0.5849	0.042
Mof_C 	C 	0.856	0.775	0.5535	0.004
Mof_H 	H 	0.8832	0.7712	0.5488	0.024
Mof_C 	C 	0.8155	0.7513	0.5289	-0.076
Mof_C 	C 	0.7757	0.7568	0.5358	0.027
Mof_H 	H 	0.748	0.7406	0.5189	0.022
Mof_C 	C 	0.7762	0.7859	0.5672	-0.009
Mof_C 	C 	0.8169	0.8096	0.5916	0.044
Mof_H 	H 	0.8173	0.8295	0.6131	-0.001
Mof_O 	O 	0.08895	0.963	0.7295	-0.434
Mof_H 	H 	0.0967	0.9888	0.7418	0.212
Mof_C 	C 	0.0498	0.9497	0.7097	0.44
Mof_O 	O 	0.039	0.982	0.7011	-0.206
Mof_C 	C 	0.0373	0.9119	0.6802	0.016
Mof_C 	C 	0.065	0.8903	0.673	0.019
Mof_H 	H 	0.0947	0.9014	0.6869	0.025
Mof_C 	C 	0.0493	0.8526	0.6454	-0.039
Mof_C 	C 	0.0058	0.8364	0.6251	0.05
Mof_H 	H 	0.9951	0.8107	0.6062	0.02
Mof_C 	C 	0.9781	0.858	0.6323	0.008
Mof_C 	C 	0.9939	0.8958	0.6598	-0.017
Mof_H 	H 	0.975	0.9106	0.6648	0.056
Mof_C 	C 	0.9326	0.8424	0.6083	-0.214
Mof_H 	H 	0.9376	0.8343	0.5804	0.011
Mof_H 	H 	0.9267	0.8699	0.6064	0.04
Mof_C 	C 	0.8882	0.7997	0.6257	0.122
Mof_H 	H 	0.8791	0.8093	0.6512	-0.006
Mof_H 	H 	0.8956	0.7739	0.6321	0.156
Mof_C 	C 	0.8465	0.7806	0.5964	-0.063
Mof_C 	C 	0.848	0.7552	0.5629	-0.014
Mof_H 	H 	0.8731	0.7477	0.5604	0.044
Mof_C 	C 	0.8127	0.7405	0.5332	-0.034
Mof_C 	C 	0.7759	0.7514	0.5369	0.014
Mof_H 	H 	0.7518	0.7415	0.5166	0.026
Mof_C 	C 	0.7745	0.7771	0.5704	-0.094
Mof_C 	C 	0.8098	0.7916	0.6001	-0.059
Mof_H 	H 	0.8088	0.8091	0.623	0.065
Mof_Co	Co	0.655	0.8	0.533	-0.441
Mof_Fe	Fe	0.32387	0.13613	0.86773	2.198
Mof_O 	O 	0.78916	0.18338	0.98657	-0.516
Mof_O 	O 	0.73366	0.13293	0.94351	-0.543
Mof_O 	O 	0.51589	0.04153	0.82918	-0.543
Mof_O 	O 	0.44658	0.03312	0.80482	-0.533
Mof_O 	O 	0.3984	0.13941	0.94289	-0.521
Mof_O 	O 	0.37193	0.11369	0.88016	-0.524
Mof_O 	O 	0.3116	0.09664	0.81386	-0.279
Mof_C 	C 	0.74807	0.16473	0.96973	0.481
Mof_C 	C 	0.48027	0.04873	0.83043	0.475
Mof_C 	C 	0.40037	0.12293	0.90923	0.468
Mof_O 	O 	0.68077	0.28903	0.05803	-0.3
Mof_C 	C 	0.69647	0.23363	0.02293	0.073
Mof_C 	C 	0.72937	0.22023	0.00993	0.012
Mof_H 	H 	0.76237	0.23873	0.01763	0.029
Mof_C 	C 	0.71407	0.17963	0.98563	-0.064
Mof_C 	C 	0.66587	0.15253	0.97433	-0.181
Mof_H 	H 	0.65547	0.12483	0.95773	0.114
Mof_C 	C 	0.63297	0.16603	0.98743	-0.096
Mof_C 	C 	0.64827	0.20653	0.01163	0.362
Mof_H 	H 	0.62577	0.21573	0.02053	-0.068
Mof_C 	C 	0.58107	0.13933	0.97363	-0.132
Mof_H 	H 	0.55997	0.13253	0.99753	0.052
Mof_H 	H 	0.57397	0.10803	0.96193	-0.182
Mof_C 	C 	0.56877	0.16633	0.94283	-0.294
Mof_H 	H 	0.56607	0.19203	0.95723	0.109
Mof_H 	H 	0.59627	0.18243	0.92383	0.186
Mof_C 	C 	0.52347	0.13753	0.91823	0.13
Mof_C 	C 	0.52267	0.10833	0.88683	0.059
Mof_H 	H 	0.54987	0.10453	0.88213	0.005
Mof_C 	C 	0.48217	0.08463	0.86223	-0.063
Mof_C 	C 	0.44237	0.09013	0.86913	0.027
Mof_H 	H 	0.41467	0.07393	0.85223	0.022
Mof_C 	C 	0.44287	0.11923	0.90053	-0.001
Mof_C 	C 	0.48357	0.14293	0.92493	0.068
Mof_H 	H 	0.48397	0.16283	0.94643	-0.02
Mof_O 	O 	0.75562	0.29633	0.06283	-0.435
Mof_H 	H 	0.76337	0.32213	0.07513	0.2
Mof_C 	C 	0.71647	0.28303	0.04303	0.452
Mof_O 	O 	0.70567	0.31533	0.03443	-0.206
Mof_C 	C 	0.70397	0.24523	0.01353	-0.138
Mof_C 	C 	0.73167	0.22363	0.00633	0.006
Mof_H 	H 	0.76137	0.23473	0.02023	0.028
Mof_C 	C 	0.71597	0.18593	0.97873	-0.032
Mof_C 	C 	0.67247	0.16973	0.95843	0.145
Mof_H 	H 	0.66177	0.14403	0.93953	-0.022
Mof_C 	C 	0.64477	0.19133	0.96563	0.151
Mof_C 	C 	0.66057	0.22913	0.99313	-0.442
Mof_H 	H 	0.64167	0.24393	0.99813	0.193
Mof_C 	C 	0.59927	0.17573	0.94163	-0.125
Mof_H 	H 	0.60427	0.16763	0.91373	-0.02
Mof_H 	H 	0.59337	0.20323	0.93973	0.034
Mof_C 	C 	0.55487	0.13303	0.95903	0.191
Mof_H 	H 	0.54577	0.14263	0.98453	-0.018
Mof_H 	H 	0.56227	0.10723	0.96543	0.227
Mof_C 	C 	0.51317	0.11393	0.92973	-0.122
Mof_C 	C 	0.51467	0.08853	0.89623	-0.077
Mof_H 	H 	0.53977	0.08103	0.89373	0.069
Mof_C 	C 	0.47937	0.07383	0.86653	-0.048
Mof_C 	C 	0.44257	0.08473	0.87023	0.011
Mof_H 	H 	0.41847	0.07483	0.84993	0.026
Mof_C 	C 	0.44117	0.11043	0.90373	-0.099
Mof_C 	C 	0.47647	0.12493	0.93343	-0.1
Mof_H 	H 	0.47547	0.14243	0.95633	0.086
Mof_Co	Co	0.32167	0.13333	0.86633	-0.441
Mof_Fe	Fe	0.99053	0.46947	0.20107	2.192
Mof_O 	O 	0.45582	0.51672	0.31991	-0.515
Mof_O 	O 	0.40032	0.46627	0.27685	-0.542
Mof_O 	O 	0.18255	0.37487	0.16252	-0.54
Mof_O 	O 	0.11324	0.36646	0.13816	-0.532
Mof_O 	O 	0.06506	0.47275	0.27623	-0.522
Mof_O 	O 	0.03859	0.44703	0.2135	-0.528
Mof_O 	O 	0.97826	0.42998	0.1472	-0.272
Mof_C 	C 	0.41473	0.49807	0.30307	0.481
Mof_C 	C 	0.14693	0.38207	0.16377	0.475
Mof_C 	C 	0.06703	0.45627	0.24257	0.469
Mof_O 	O 	0.34743	0.62237	0.39137	-0.3
Mof_C 	C 	0.36313	0.56697	0.35627	0.07
Mof_C 	C 	0.39603	0.55357	0.34327	0.012
Mof_H 	H 	0.42903	0.57207	0.35097	0.029
Mof_C 	C 	0.38073	0.51297	0.31897	-0.064
Mof_C 	C 	0.33253	0.48587	0.30767	-0.178
Mof_H 	H 	0.32213	0.45817	0.29107	0.114
Mof_C 	C 	0.29963	0.49937	0.32077	-0.092
Mof_C 	C 	0.31493	0.53987	0.34497	0.355
Mof_H 	H 	0.29243	0.54907	0.35387	-0.066
Mof_C 	C 	0.24773	0.47267	0.30697	-0.135
Mof_H 	H 	0.22663	0.46587	0.33087	0.053
Mof_H 	H 	0.24063	0.44137	0.29527	-0.178
Mof_C 	C 	0.23543	0.49967	0.27617	-0.289
Mof_H 	H 	0.23273	0.52537	0.29057	0.108
Mof_H 	H 	0.26293	0.51577	0.25717	0.184
Mof_C 	C 	0.19013	0.47087	0.25157	0.126
Mof_C 	C 	0.18933	0.44167	0.22017	0.057
Mof_H 	H 	0.21653	0.43787	0.21547	0.005
Mof_C 	C 	0.14883	0.41797	0.19557	-0.062
Mof_C 	C 	0.10903	0.42347	0.20247	0.027
Mof_H 	H 	0.08133	0.40727	0.18557	0.021
Mof_C 	C 	0.10953	0.45257	0.23387	-0.002
Mof_C 	C 	0.15023	0.47627	0.25827	0.067
Mof_H 	H 	0.15063	0.49617	0.27977	-0.019
Mof_O 	O 	0.42228	0.62967	0.39617	-0.435
Mof_H 	H 	0.43003	0.65547	0.40847	0.2
Mof_C 	C 	0.38313	0.61637	0.37637	0.452
Mof_O 	O 	0.37233	0.64867	0.36777	-0.206
Mof_C 	C 	0.37063	0.57857	0.34687	-0.135
Mof_C 	C 	0.39833	0.55697	0.33967	0.007
Mof_H 	H 	0.42803	0.56807	0.35357	0.027
Mof_C 	C 	0.38263	0.51927	0.31207	-0.032
Mof_C 	C 	0.33913	0.50307	0.29177	0.142
Mof_H 	H 	0.32843	0.47737	0.27287	-0.021
Mof_C 	C 	0.31143	0.52467	0.29897	0.148
Mof_C 	C 	0.32723	0.56247	0.32647	-0.436
Mof_H 	H 	0.30833	0.57727	0.33147	0.191
Mof_C 	C 	0.26593	0.50907	0.27497	-0.124
Mof_H 	H 	0.27093	0.50097	0.24707	-0.019
Mof_H 	H 	0.26003	0.53657	0.27307	0.034
Mof_C 	C 	0.22153	0.46637	0.29237	0.189
Mof_H 	H 	0.21243	0.47597	0.31787	-0.017
Mof_H 	H 	0.22893	0.44057	0.29877	0.226
Mof_C 	C 	0.17983	0.44727	0.26307	-0.117
Mof_C 	C 	0.18133	0.42187	0.22957	-0.074
Mof_H 	H 	0.20643	0.41437	0.22707	0.07
Mof_C 	C 	0.14603	0.40717	0.19987	-0.048
Mof_C 	C 	0.10923	0.41807	0.20357	0.011
Mof_H 	H 	0.08513	0.40817	0.18327	0.025
Mof_C 	C 	0.10783	0.44377	0.23707	-0.099
Mof_C 	C 	0.14313	0.45827	0.26677	-0.098
Mof_H 	H 	0.14213	0.47577	0.28967	0.085
Mof_Co	Co	0.98833	0.46667	0.19967	-0.432
Mof_Fe	Fe	3.44619e-33	0	0.25	1.205
Mof_Fe	Fe	0.66667	0.33333	0.58333	1.242
Mof_Fe	Fe	0.33333	0.66667	0.91667	1.242
Mof_Fe	Fe	6.89239e-33	0	0.75	1.205
Mof_Fe	Fe	0.66667	0.33333	0.08333	1.242
Mof_Fe	Fe	0.33333	0.66667	0.41667	1.242
Mof_Fe	Fe	0.66667	0.76788	0.08333	2.331
Mof_O 	O 	0.66667	0.82883	0.08333	-0.945
Mof_O 	O 	0.66667	0.70482	0.08333	-0.338
Mof_Co	Co	0.66667	0.77358	0.08333	-0.505
Mof_Fe	Fe	0.23212	0.89878	0.08333	2.33
Mof_O 	O 	0.17117	0.83783	0.08333	-0.945
Mof_O 	O 	0.29518	0.96184	0.08333	-0.334
Mof_Co	Co	0.22642	0.89308	0.08333	-0.505
Mof_Fe	Fe	0.10122	0.33333	0.08333	2.331
Mof_O 	O 	0.16217	0.33333	0.08333	-0.945
Mof_O 	O 	0.03816	0.33333	0.08333	-0.342
Mof_Co	Co	0.10692	0.33333	0.08333	-0.506
Mof_Fe	Fe	0.76788	0.66667	0.41667	2.331
Mof_O 	O 	0.82883	0.66667	0.41667	-0.945
Mof_O 	O 	0.70482	0.66667	0.41667	-0.338
Mof_Co	Co	0.77358	0.66667	0.41667	-0.505
Mof_Fe	Fe	0.43455	0	0.75	2.334
Mof_O 	O 	0.4955	0	0.75	-0.951
Mof_O 	O 	0.37149	0	0.75	-0.344
Mof_Co	Co	0.44025	0	0.75	-0.511
Mof_Fe	Fe	0.89878	0.23212	0.41667	2.33
Mof_O 	O 	0.83783	0.17117	0.41667	-0.945
Mof_O 	O 	0.96184	0.29518	0.41667	-0.334
Mof_Co	Co	0.89308	0.22642	0.41667	-0.505
Mof_Fe	Fe	0.56545	0.56545	0.75	2.331
Mof_O 	O 	0.5045	0.5045	0.75	-0.945
Mof_O 	O 	0.62851	0.62851	0.75	-0.339
Mof_Co	Co	0.55975	0.55975	0.75	-0.505
Mof_Fe	Fe	0.33333	0.10122	0.41667	2.331
Mof_O 	O 	0.33333	0.16217	0.41667	-0.945
Mof_O 	O 	0.33333	0.03816	0.41667	-0.343
Mof_Co	Co	0.33333	0.10692	0.41667	-0.506
Mof_Fe	Fe	-3.27525e-17	0.43455	0.75	2.334
Mof_O 	O 	-1.71191e-18	0.4955	0.75	-0.951
Mof_O 	O 	-3.27525e-17	0.37149	0.75	-0.344
Mof_Co	Co	-1.71191e-18	0.44025	0.75	-0.511
Mof_Fe	Fe	0.33333	0.23212	0.91667	2.331
Mof_O 	O 	0.33333	0.17117	0.91667	-0.945
Mof_O 	O 	0.33333	0.29518	0.91667	-0.338
Mof_Co	Co	0.33333	0.22642	0.91667	-0.505
Mof_Fe	Fe	-3.16112e-17	0.56545	0.25	2.334
Mof_O 	O 	-3.16112e-17	0.5045	0.25	-0.951
Mof_O 	O 	-3.16112e-17	0.62851	0.25	-0.344
Mof_Co	Co	-3.16112e-17	0.55975	0.25	-0.511
Mof_Fe	Fe	0.76788	0.10122	0.91667	2.331
Mof_O 	O 	0.82883	0.16217	0.91667	-0.945
Mof_O 	O 	0.70482	0.03816	0.91667	-0.342
Mof_Co	Co	0.77358	0.10692	0.91667	-0.506
Mof_Fe	Fe	0.43455	0.43455	0.25	2.331
Mof_O 	O 	0.4955	0.4955	0.25	-0.945
Mof_O 	O 	0.37149	0.37149	0.25	-0.338
Mof_Co	Co	0.44025	0.44025	0.25	-0.505
Mof_Fe	Fe	0.89878	0.66667	0.91667	2.33
Mof_O 	O 	0.83783	0.66667	0.91667	-0.945
Mof_O 	O 	0.96184	0.66667	0.91667	-0.334
Mof_Co	Co	0.89308	0.66667	0.91667	-0.505
Mof_Fe	Fe	0.56545	0	0.25	2.334
Mof_O 	O 	0.5045	0	0.25	-0.951
Mof_O 	O 	0.62851	0	0.25	-0.344
Mof_Co	Co	0.55975	0	0.25	-0.511
Mof_Fe	Fe	0.23212	0.33333	0.58333	2.331
Mof_O 	O 	0.17117	0.33333	0.58333	-0.945
Mof_O 	O 	0.29518	0.33333	0.58333	-0.338
Mof_Co	Co	0.22642	0.33333	0.58333	-0.505
Mof_Fe	Fe	0.10122	0.76788	0.58333	2.331
Mof_O 	O 	0.16217	0.82883	0.58333	-0.945
Mof_O 	O 	0.03816	0.70482	0.58333	-0.342
Mof_Co	Co	0.10692	0.77358	0.58333	-0.506
Mof_Fe	Fe	0.66667	0.89878	0.58333	2.33
Mof_O 	O 	0.66667	0.83783	0.58333	-0.945
Mof_O 	O 	0.66667	0.96184	0.58333	-0.334
Mof_Co	Co	0.66667	0.89308	0.58333	-0.505
_end
