# CIF file generated by openbabel 2.4.1, see http://openbabel.sf.net
data_I
_chemical_name_common 'image0'
_cell_length_a 9.8941
_cell_length_b 9.8941
_cell_length_c 9.8941
_cell_angle_alpha 90
_cell_angle_beta 90
_cell_angle_gamma 90
_space_group_name_H-M_alt 'P 1'
_space_group_name_Hall 'P 1'
loop_
    _symmetry_equiv_pos_as_xyz
    x,y,z
loop_
    _atom_site_label
    _atom_site_type_symbol
    _atom_site_fract_x
    _atom_site_fract_y
    _atom_site_fract_z
    _atom_site_occupancy
    C1      C    0.59950   0.24610   0.02640   1.000
    C2      C    0.64840   0.36560   0.94570   1.000
    C3      C    0.57370   0.32960   0.90190   1.000
    C4      C    0.60290   0.24190   0.02150   1.000
    N1      N    0.51800   0.23930   0.93470   1.000
    N2      N    0.60700   0.22130   0.03270   1.000
    N3      N    0.69820   0.31710   0.02930   1.000
    O1      O    0.71570   0.22700   0.07610   1.000
    O2      O    0.51520   0.15010   0.02380   1.000
    O3      O    0.68260   0.22640   0.11870   1.000
    O4      O    0.48370   0.19890   0.02980   1.000
    C5      C    0.90050   0.75390   0.52640   1.000
    C6      C    0.85160   0.63440   0.44570   1.000
    C7      C    0.92630   0.67040   0.40190   1.000
    C8      C    0.89710   0.75810   0.52150   1.000
    N4      N    0.98200   0.76070   0.43470   1.000
    N5      N    0.89300   0.77870   0.53270   1.000
    N6      N    0.80180   0.68290   0.52930   1.000
    O5      O    0.78430   0.77300   0.57610   1.000
    O6      O    0.98480   0.84990   0.52380   1.000
    O7      O    0.81740   0.77360   0.61870   1.000
    O8      O    0.01630   0.80110   0.52980   1.000
    C9      C    0.40050   0.74610   0.47360   1.000
    C10     C    0.35160   0.86560   0.55430   1.000
    C11     C    0.42630   0.82960   0.59810   1.000
    C12     C    0.39710   0.74190   0.47850   1.000
    N7      N    0.48200   0.73930   0.56530   1.000
    N8      N    0.39300   0.72130   0.46730   1.000
    N9      N    0.30180   0.81710   0.47070   1.000
    O9      O    0.28430   0.72700   0.42390   1.000
    O10     O    0.48480   0.65010   0.47620   1.000
    O11     O    0.31740   0.72640   0.38130   1.000
    O12     O    0.51630   0.69890   0.47020   1.000
    C13     C    0.09950   0.25390   0.97360   1.000
    C14     C    0.14840   0.13440   0.05430   1.000
    C15     C    0.07370   0.17040   0.09810   1.000
    C16     C    0.10290   0.25810   0.97850   1.000
    N10     N    0.01800   0.26070   0.06530   1.000
    N11     N    0.10700   0.27870   0.96730   1.000
    N12     N    0.19820   0.18290   0.97070   1.000
    O13     O    0.21570   0.27300   0.92390   1.000
    O14     O    0.01520   0.34990   0.97620   1.000
    O15     O    0.18260   0.27360   0.88130   1.000
    O16     O    0.98370   0.30110   0.97020   1.000
    C17     C    0.02640   0.59950   0.24610   1.000
    C18     C    0.94570   0.64840   0.36560   1.000
    C19     C    0.90190   0.57370   0.32960   1.000
    C20     C    0.02150   0.60290   0.24190   1.000
    N13     N    0.93470   0.51800   0.23930   1.000
    N14     N    0.03270   0.60700   0.22130   1.000
    N15     N    0.02930   0.69820   0.31710   1.000
    O17     O    0.07610   0.71570   0.22700   1.000
    O18     O    0.02380   0.51520   0.15010   1.000
    O19     O    0.11870   0.68260   0.22640   1.000
    O20     O    0.02980   0.48370   0.19890   1.000
    C21     C    0.52640   0.90050   0.75390   1.000
    C22     C    0.44570   0.85160   0.63440   1.000
    C23     C    0.40190   0.92630   0.67040   1.000
    C24     C    0.52150   0.89710   0.75810   1.000
    N16     N    0.43470   0.98200   0.76070   1.000
    N17     N    0.53270   0.89300   0.77870   1.000
    N18     N    0.52930   0.80180   0.68290   1.000
    O21     O    0.57610   0.78430   0.77300   1.000
    O22     O    0.52380   0.98480   0.84990   1.000
    O23     O    0.61870   0.81740   0.77360   1.000
    O24     O    0.52980   0.01630   0.80110   1.000
    C25     C    0.47360   0.40050   0.74610   1.000
    C26     C    0.55430   0.35160   0.86560   1.000
    C27     C    0.59810   0.42630   0.82960   1.000
    C28     C    0.47850   0.39710   0.74190   1.000
    N19     N    0.56530   0.48200   0.73930   1.000
    N20     N    0.46730   0.39300   0.72130   1.000
    N21     N    0.47070   0.30180   0.81710   1.000
    O25     O    0.42390   0.28430   0.72700   1.000
    O26     O    0.47620   0.48480   0.65010   1.000
    O27     O    0.38130   0.31740   0.72640   1.000
    O28     O    0.47020   0.51630   0.69890   1.000
    C29     C    0.97360   0.09950   0.25390   1.000
    C30     C    0.05430   0.14840   0.13440   1.000
    C31     C    0.09810   0.07370   0.17040   1.000
    C32     C    0.97850   0.10290   0.25810   1.000
    N22     N    0.06530   0.01800   0.26070   1.000
    N23     N    0.96730   0.10700   0.27870   1.000
    N24     N    0.97070   0.19820   0.18290   1.000
    O29     O    0.92390   0.21570   0.27300   1.000
    O30     O    0.97620   0.01520   0.34990   1.000
    O31     O    0.88130   0.18260   0.27360   1.000
    O32     O    0.97020   0.98370   0.30110   1.000
    C33     C    0.24610   0.02640   0.59950   1.000
    C34     C    0.36560   0.94570   0.64840   1.000
    C35     C    0.32960   0.90190   0.57370   1.000
    C36     C    0.24190   0.02150   0.60290   1.000
    N25     N    0.23930   0.93470   0.51800   1.000
    N26     N    0.22130   0.03270   0.60700   1.000
    N27     N    0.31710   0.02930   0.69820   1.000
    O33     O    0.22700   0.07610   0.71570   1.000
    O34     O    0.15010   0.02380   0.51520   1.000
    O35     O    0.22640   0.11870   0.68260   1.000
    O36     O    0.19890   0.02980   0.48370   1.000
    C37     C    0.75390   0.52640   0.90050   1.000
    C38     C    0.63440   0.44570   0.85160   1.000
    C39     C    0.67040   0.40190   0.92630   1.000
    C40     C    0.75810   0.52150   0.89710   1.000
    N28     N    0.76070   0.43470   0.98200   1.000
    N29     N    0.77870   0.53270   0.89300   1.000
    N30     N    0.68290   0.52930   0.80180   1.000
    O37     O    0.77300   0.57610   0.78430   1.000
    O38     O    0.84990   0.52380   0.98480   1.000
    O39     O    0.77360   0.61870   0.81740   1.000
    O40     O    0.80110   0.52980   0.01630   1.000
    C41     C    0.74610   0.47360   0.40050   1.000
    C42     C    0.86560   0.55430   0.35160   1.000
    C43     C    0.82960   0.59810   0.42630   1.000
    C44     C    0.74190   0.47850   0.39710   1.000
    N31     N    0.73930   0.56530   0.48200   1.000
    N32     N    0.72130   0.46730   0.39300   1.000
    N33     N    0.81710   0.47070   0.30180   1.000
    O41     O    0.72700   0.42390   0.28430   1.000
    O42     O    0.65010   0.47620   0.48480   1.000
    O43     O    0.72640   0.38130   0.31740   1.000
    O44     O    0.69890   0.47020   0.51630   1.000
    C45     C    0.25390   0.97360   0.09950   1.000
    C46     C    0.13440   0.05430   0.14840   1.000
    C47     C    0.17040   0.09810   0.07370   1.000
    C48     C    0.25810   0.97850   0.10290   1.000
    N34     N    0.26070   0.06530   0.01800   1.000
    N35     N    0.27870   0.96730   0.10700   1.000
    N36     N    0.18290   0.97070   0.19820   1.000
    O45     O    0.27300   0.92390   0.21570   1.000
    O46     O    0.34990   0.97620   0.01520   1.000
    O47     O    0.27360   0.88130   0.18260   1.000
    O48     O    0.30110   0.97020   0.98370   1.000
    Co1     Co   0.36220   0.13780   0.86220   1.000
    Co2     Co   0.13780   0.86220   0.36220   1.000
    Co3     Co   0.63780   0.63780   0.63780   1.000
    Co4     Co   0.86220   0.36220   0.13780   1.000
