data_functionalizedCrystal
_audit_creation_method	'EQeq! by Chris Wilmer'
_symmetry_space_group_name_H-M	'P1'
_symmetry_Int_Tables_number	1
_symmetry_cell_setting	triclinic
loop_
_symmetry_equiv_pos_as_xyz
  x,y,z
_cell_length_a	25.898
_cell_length_b	25.898
_cell_length_c	32.995
_cell_angle_alpha	90
_cell_angle_beta	90
_cell_angle_gamma	120
loop_
_atom_site_label
_atom_site_type_symbol
_atom_site_fract_x
_atom_site_fract_y
_atom_site_fract_z
_atom_site_charge
Mof_Fe	Fe	0.4652	0.296	0.0517	2.483
Mof_O 	O 	0.3154	0.9091	0.0745	-0.638
Mof_O 	O 	0.2616	0.9405	0.04142	-0.563
Mof_O 	O 	0.3396	0.1596	0.04117	-0.561
Mof_O 	O 	0.4234	0.2155	0.07558	-0.662
Mof_O 	O 	0.5288	0.2784	0.0328	-0.76
Mof_O 	O 	0.5132	0.3828	0.0316	-0.956
Mof_C 	C 	0.5213	0.0812	0.2335	0.05
Mof_C 	C 	0.5452	0.0978	0.1949	-0.06
Mof_H 	H 	0.5862	0.1111	0.1904	0.033
Mof_C 	C 	0.509	0.0949	0.1628	0.109
Mof_C 	C 	0.4249	0.0589	0.2081	0.134
Mof_C 	C 	0.4613	0.0628	0.2403	-0.024
Mof_H 	H 	0.4454	0.0531	0.2669	0.029
Mof_C 	C 	0.5312	0.1148	0.12	-0.337
Mof_H 	H 	0.4971	0.0995	0.1014	0.041
Mof_H 	H 	0.5574	0.0993	0.112	0.118
Mof_H 	H 	0.5535	0.1584	0.1188	0.095
Mof_C 	C 	0.3593	0.0347	0.2199	-0.335
Mof_H 	H 	0.3568	0.0412	0.2489	0.11
Mof_H 	H 	0.3363	0.9919	0.214	0.106
Mof_H 	H 	0.3431	0.0555	0.2043	0.096
Mof_C 	C 	0.4496	0.0757	0.16911	-0.111
Mof_C 	C 	0.4102	0.0693	0.1344	-0.015
Mof_C 	C 	0.3732	0.0144	0.1172	0.036
Mof_H 	H 	0.3724	0.9802	0.1285	0.017
Mof_C 	C 	0.3376	0.0071	0.0844	-0.223
Mof_C 	C 	0.3384	0.0573	0.069	0.134
Mof_H 	H 	0.3129	0.053	0.0469	0.017
Mof_C 	C 	0.3748	0.1128	0.0846	-0.224
Mof_C 	C 	0.4107	0.1186	0.1174	0.034
Mof_H 	H 	0.4361	0.157	0.1285	0.02
Mof_C 	C 	0.3009	0.9474	0.0653	0.567
Mof_C 	C 	0.3802	0.1675	0.0656	0.573
Mof_Co	Co	0.463	0.296	0.0447	-0.593
Mof_C 	C 	0.5335	0.0692	0.1946	-0.096
Mof_H 	H 	0.5654	0.0617	0.1902	0.054
Mof_C 	C 	0.4987	0.0681	0.162	0.062
Mof_C 	C 	0.4403	0.0915	0.2074	0.014
Mof_C 	C 	0.4757	0.0938	0.2396	-0.127
Mof_H 	H 	0.4688	0.1039	0.266	0.054
Mof_C 	C 	0.5165	0.0554	0.1203	-0.327
Mof_H 	H 	0.5141	0.0817	0.1	0.146
Mof_H 	H 	0.4893	0.0137	0.1128	0.088
Mof_H 	H 	0.5574	0.0626	0.1215	0.071
Mof_C 	C 	0.39	0.1046	0.2133	-0.227
Mof_H 	H 	0.3982	0.14	0.1976	0.088
Mof_H 	H 	0.3868	0.1118	0.2421	0.081
Mof_H 	H 	0.3525	0.0704	0.204	0.063
Mof_H 	H 	0.6057	0.2523	0.9727	0.217
Mof_H 	H 	0.5694	0.2062	0.0082	0.219
Mof_H 	H 	0.6214	0.2721	0.0191	0.183
Mof_H 	H 	0.5663	0.489	0.972	0.439
Mof_H 	H 	0.5382	0.4902	0.015	0.405
Mof_H 	H 	0.5987	0.4877	0.013	0.427
Mof_Fe	Fe	0.704	0.1692	0.0517	2.482
Mof_O 	O 	0.0909	0.4063	0.0745	-0.639
Mof_O 	O 	0.0595	0.3211	0.04142	-0.564
Mof_O 	O 	0.8404	0.18	0.04117	-0.562
Mof_O 	O 	0.7845	0.2079	0.07558	-0.663
Mof_O 	O 	0.7216	0.2504	0.0328	-0.761
Mof_O 	O 	0.6172	0.1304	0.0316	-0.957
Mof_C 	C 	0.9188	0.4401	0.2335	0.049
Mof_C 	C 	0.9022	0.4474	0.1949	-0.061
Mof_H 	H 	0.8889	0.4751	0.1904	0.032
Mof_C 	C 	0.9051	0.4141	0.1628	0.108
Mof_C 	C 	0.9411	0.366	0.2081	0.134
Mof_C 	C 	0.9372	0.3985	0.2403	-0.025
Mof_H 	H 	0.9469	0.3923	0.2669	0.028
Mof_C 	C 	0.8852	0.4164	0.12	-0.338
Mof_H 	H 	0.9005	0.3976	0.1014	0.04
Mof_H 	H 	0.9007	0.4581	0.112	0.117
Mof_H 	H 	0.8416	0.3951	0.1188	0.094
Mof_C 	C 	0.9653	0.3246	0.2199	-0.336
Mof_H 	H 	0.9588	0.3156	0.2489	0.109
Mof_H 	H 	0.0081	0.3444	0.214	0.106
Mof_H 	H 	0.9445	0.2876	0.2043	0.095
Mof_C 	C 	0.9243	0.3739	0.16911	-0.112
Mof_C 	C 	0.9307	0.3409	0.1344	-0.016
Mof_C 	C 	0.9856	0.3588	0.1172	0.035
Mof_H 	H 	0.0198	0.3922	0.1285	0.016
Mof_C 	C 	0.9929	0.3305	0.0844	-0.224
Mof_C 	C 	0.9427	0.2811	0.069	0.133
Mof_H 	H 	0.947	0.2599	0.0469	0.015
Mof_C 	C 	0.8872	0.262	0.0846	-0.225
Mof_C 	C 	0.8814	0.2921	0.1174	0.033
Mof_H 	H 	0.843	0.2791	0.1285	0.019
Mof_C 	C 	0.0526	0.3535	0.0653	0.566
Mof_C 	C 	0.8325	0.2127	0.0656	0.572
Mof_Co	Co	0.704	0.167	0.0447	-0.594
Mof_C 	C 	0.9308	0.4643	0.1946	-0.097
Mof_H 	H 	0.9383	0.5037	0.1902	0.053
Mof_C 	C 	0.9319	0.4306	0.162	0.061
Mof_C 	C 	0.9085	0.3488	0.2074	0.013
Mof_C 	C 	0.9062	0.3819	0.2396	-0.128
Mof_H 	H 	0.8961	0.3649	0.266	0.053
Mof_C 	C 	0.9446	0.4611	0.1203	-0.328
Mof_H 	H 	0.9183	0.4324	0.1	0.145
Mof_H 	H 	0.9863	0.4756	0.1128	0.087
Mof_H 	H 	0.9374	0.4948	0.1215	0.07
Mof_C 	C 	0.8954	0.2854	0.2133	-0.228
Mof_H 	H 	0.86	0.2582	0.1976	0.087
Mof_H 	H 	0.8882	0.275	0.2421	0.08
Mof_H 	H 	0.9296	0.2821	0.204	0.063
Mof_H 	H 	0.7477	0.3534	0.9727	0.217
Mof_H 	H 	0.7938	0.3632	0.0082	0.218
Mof_H 	H 	0.7279	0.3493	0.0191	0.183
Mof_H 	H 	0.511	0.0773	0.972	0.44
Mof_H 	H 	0.5098	0.048	0.015	0.405
Mof_H 	H 	0.5123	0.111	0.013	0.427
Mof_Fe	Fe	0.8308	0.5348	0.0517	2.482
Mof_O 	O 	0.5937	0.6846	0.0745	-0.639
Mof_O 	O 	0.6789	0.7384	0.04142	-0.564
Mof_O 	O 	0.82	0.6604	0.04117	-0.562
Mof_O 	O 	0.7921	0.5766	0.07558	-0.663
Mof_O 	O 	0.7496	0.4712	0.0328	-0.761
Mof_O 	O 	0.8696	0.4868	0.0316	-0.957
Mof_C 	C 	0.5599	0.4787	0.2335	0.049
Mof_C 	C 	0.5526	0.4548	0.1949	-0.061
Mof_H 	H 	0.5249	0.4138	0.1904	0.032
Mof_C 	C 	0.5859	0.491	0.1628	0.108
Mof_C 	C 	0.634	0.5751	0.2081	0.134
Mof_C 	C 	0.6015	0.5387	0.2403	-0.025
Mof_H 	H 	0.6077	0.5546	0.2669	0.028
Mof_C 	C 	0.5836	0.4688	0.12	-0.338
Mof_H 	H 	0.6024	0.5029	0.1014	0.04
Mof_H 	H 	0.5419	0.4426	0.112	0.117
Mof_H 	H 	0.6049	0.4465	0.1188	0.094
Mof_C 	C 	0.6754	0.6407	0.2199	-0.336
Mof_H 	H 	0.6844	0.6432	0.2489	0.109
Mof_H 	H 	0.6556	0.6637	0.214	0.106
Mof_H 	H 	0.7124	0.6569	0.2043	0.095
Mof_C 	C 	0.6261	0.5504	0.16911	-0.112
Mof_C 	C 	0.6591	0.5898	0.1344	-0.016
Mof_C 	C 	0.6412	0.6268	0.1172	0.035
Mof_H 	H 	0.6078	0.6276	0.1285	0.016
Mof_C 	C 	0.6695	0.6624	0.0844	-0.224
Mof_C 	C 	0.7189	0.6616	0.069	0.133
Mof_H 	H 	0.7401	0.6871	0.0469	0.016
Mof_C 	C 	0.738	0.6252	0.0846	-0.225
Mof_C 	C 	0.7079	0.5893	0.1174	0.033
Mof_H 	H 	0.7209	0.5639	0.1285	0.019
Mof_C 	C 	0.6465	0.6991	0.0653	0.566
Mof_C 	C 	0.7873	0.6198	0.0656	0.572
Mof_Co	Co	0.833	0.537	0.0447	-0.594
Mof_C 	C 	0.5357	0.4665	0.1946	-0.097
Mof_H 	H 	0.4963	0.4346	0.1902	0.053
Mof_C 	C 	0.5694	0.5013	0.162	0.06
Mof_C 	C 	0.6512	0.5597	0.2074	0.013
Mof_C 	C 	0.6181	0.5243	0.2396	-0.128
Mof_H 	H 	0.6351	0.5312	0.266	0.053
Mof_C 	C 	0.5389	0.4835	0.1203	-0.328
Mof_H 	H 	0.5676	0.4859	0.1	0.145
Mof_H 	H 	0.5244	0.5107	0.1128	0.087
Mof_H 	H 	0.5052	0.4426	0.1215	0.07
Mof_C 	C 	0.7146	0.61	0.2133	-0.228
Mof_H 	H 	0.7418	0.6018	0.1976	0.087
Mof_H 	H 	0.725	0.6132	0.2421	0.08
Mof_H 	H 	0.7179	0.6475	0.204	0.063
Mof_H 	H 	0.6466	0.3943	0.9727	0.217
Mof_H 	H 	0.6368	0.4306	0.0082	0.219
Mof_H 	H 	0.6507	0.3786	0.0191	0.183
Mof_H 	H 	0.9227	0.4337	0.972	0.44
Mof_H 	H 	0.952	0.4618	0.015	0.405
Mof_H 	H 	0.889	0.4013	0.013	0.427
Mof_Fe	Fe	0.5348	0.704	0.0517	2.482
Mof_O 	O 	0.6846	0.0909	0.0745	-0.639
Mof_O 	O 	0.7384	0.0595	0.04142	-0.564
Mof_O 	O 	0.6604	0.8404	0.04117	-0.562
Mof_O 	O 	0.5766	0.7845	0.07558	-0.663
Mof_O 	O 	0.4712	0.7216	0.0328	-0.761
Mof_O 	O 	0.4868	0.6172	0.0316	-0.957
Mof_C 	C 	0.4787	0.9188	0.2335	0.049
Mof_C 	C 	0.4548	0.9022	0.1949	-0.061
Mof_H 	H 	0.4138	0.8889	0.1904	0.032
Mof_C 	C 	0.491	0.9051	0.1628	0.108
Mof_C 	C 	0.5751	0.9411	0.2081	0.133
Mof_C 	C 	0.5387	0.9372	0.2403	-0.025
Mof_H 	H 	0.5546	0.9469	0.2669	0.028
Mof_C 	C 	0.4688	0.8852	0.12	-0.338
Mof_H 	H 	0.5029	0.9005	0.1014	0.04
Mof_H 	H 	0.4426	0.9007	0.112	0.117
Mof_H 	H 	0.4465	0.8416	0.1188	0.094
Mof_C 	C 	0.6407	0.9653	0.2199	-0.336
Mof_H 	H 	0.6432	0.9588	0.2489	0.109
Mof_H 	H 	0.6637	0.0081	0.214	0.105
Mof_H 	H 	0.6569	0.9445	0.2043	0.095
Mof_C 	C 	0.5504	0.9243	0.16911	-0.112
Mof_C 	C 	0.5898	0.9307	0.1344	-0.016
Mof_C 	C 	0.6268	0.9856	0.1172	0.035
Mof_H 	H 	0.6276	0.0198	0.1285	0.016
Mof_C 	C 	0.6624	0.9929	0.0844	-0.224
Mof_C 	C 	0.6616	0.9427	0.069	0.133
Mof_H 	H 	0.6871	0.947	0.0469	0.016
Mof_C 	C 	0.6252	0.8872	0.0846	-0.225
Mof_C 	C 	0.5893	0.8814	0.1174	0.033
Mof_H 	H 	0.5639	0.843	0.1285	0.019
Mof_C 	C 	0.6991	0.0526	0.0653	0.566
Mof_C 	C 	0.6198	0.8325	0.0656	0.572
Mof_Co	Co	0.537	0.704	0.0447	-0.594
Mof_C 	C 	0.4665	0.9308	0.1946	-0.097
Mof_H 	H 	0.4346	0.9383	0.1902	0.053
Mof_C 	C 	0.5013	0.9319	0.162	0.061
Mof_C 	C 	0.5597	0.9085	0.2074	0.013
Mof_C 	C 	0.5243	0.9062	0.2396	-0.128
Mof_H 	H 	0.5312	0.8961	0.266	0.053
Mof_C 	C 	0.4835	0.9446	0.1203	-0.328
Mof_H 	H 	0.4859	0.9183	0.1	0.145
Mof_H 	H 	0.5107	0.9863	0.1128	0.087
Mof_H 	H 	0.4426	0.9374	0.1215	0.07
Mof_C 	C 	0.61	0.8954	0.2133	-0.228
Mof_H 	H 	0.6018	0.86	0.1976	0.087
Mof_H 	H 	0.6132	0.8882	0.2421	0.08
Mof_H 	H 	0.6475	0.9296	0.204	0.063
Mof_H 	H 	0.3943	0.7477	0.9727	0.217
Mof_H 	H 	0.4306	0.7938	0.0082	0.219
Mof_H 	H 	0.3786	0.7279	0.0191	0.183
Mof_H 	H 	0.4337	0.511	0.972	0.439
Mof_H 	H 	0.4618	0.5098	0.015	0.405
Mof_H 	H 	0.4013	0.5123	0.013	0.427
Mof_Fe	Fe	0.296	0.8308	0.0517	2.482
Mof_O 	O 	0.9091	0.5937	0.0745	-0.639
Mof_O 	O 	0.9405	0.6789	0.04142	-0.564
Mof_O 	O 	0.1596	0.82	0.04117	-0.562
Mof_O 	O 	0.2155	0.7921	0.07558	-0.663
Mof_O 	O 	0.2784	0.7496	0.0328	-0.761
Mof_O 	O 	0.3828	0.8696	0.0316	-0.957
Mof_C 	C 	0.0812	0.5599	0.2335	0.049
Mof_C 	C 	0.0978	0.5526	0.1949	-0.061
Mof_H 	H 	0.1111	0.5249	0.1904	0.032
Mof_C 	C 	0.0949	0.5859	0.1628	0.108
Mof_C 	C 	0.0589	0.634	0.2081	0.134
Mof_C 	C 	0.0628	0.6015	0.2403	-0.025
Mof_H 	H 	0.0531	0.6077	0.2669	0.028
Mof_C 	C 	0.1148	0.5836	0.12	-0.338
Mof_H 	H 	0.0995	0.6024	0.1014	0.04
Mof_H 	H 	0.0993	0.5419	0.112	0.117
Mof_H 	H 	0.1584	0.6049	0.1188	0.094
Mof_C 	C 	0.0347	0.6754	0.2199	-0.336
Mof_H 	H 	0.0412	0.6844	0.2489	0.109
Mof_H 	H 	0.9919	0.6556	0.214	0.106
Mof_H 	H 	0.0555	0.7124	0.2043	0.095
Mof_C 	C 	0.0757	0.6261	0.16911	-0.112
Mof_C 	C 	0.0693	0.6591	0.1344	-0.016
Mof_C 	C 	0.0144	0.6412	0.1172	0.035
Mof_H 	H 	0.9802	0.6078	0.1285	0.016
Mof_C 	C 	0.0071	0.6695	0.0844	-0.224
Mof_C 	C 	0.0573	0.7189	0.069	0.133
Mof_H 	H 	0.053	0.7401	0.0469	0.015
Mof_C 	C 	0.1128	0.738	0.0846	-0.225
Mof_C 	C 	0.1186	0.7079	0.1174	0.033
Mof_H 	H 	0.157	0.7209	0.1285	0.019
Mof_C 	C 	0.9474	0.6465	0.0653	0.566
Mof_C 	C 	0.1675	0.7873	0.0656	0.572
Mof_Co	Co	0.296	0.833	0.0447	-0.594
Mof_C 	C 	0.0692	0.5357	0.1946	-0.097
Mof_H 	H 	0.0617	0.4963	0.1902	0.053
Mof_C 	C 	0.0681	0.5694	0.162	0.061
Mof_C 	C 	0.0915	0.6512	0.2074	0.013
Mof_C 	C 	0.0938	0.6181	0.2396	-0.128
Mof_H 	H 	0.1039	0.6351	0.266	0.053
Mof_C 	C 	0.0554	0.5389	0.1203	-0.328
Mof_H 	H 	0.0817	0.5676	0.1	0.145
Mof_H 	H 	0.0137	0.5244	0.1128	0.087
Mof_H 	H 	0.0626	0.5052	0.1215	0.07
Mof_C 	C 	0.1046	0.7146	0.2133	-0.228
Mof_H 	H 	0.14	0.7418	0.1976	0.087
Mof_H 	H 	0.1118	0.725	0.2421	0.08
Mof_H 	H 	0.0704	0.7179	0.204	0.063
Mof_H 	H 	0.2523	0.6466	0.9727	0.217
Mof_H 	H 	0.2062	0.6368	0.0082	0.218
Mof_H 	H 	0.2721	0.6507	0.0191	0.183
Mof_H 	H 	0.489	0.9227	0.972	0.44
Mof_H 	H 	0.4902	0.952	0.015	0.405
Mof_H 	H 	0.4877	0.889	0.013	0.427
Mof_Fe	Fe	0.1692	0.4652	0.0517	2.482
Mof_O 	O 	0.4063	0.3154	0.0745	-0.639
Mof_O 	O 	0.3211	0.2616	0.04142	-0.564
Mof_O 	O 	0.18	0.3396	0.04117	-0.562
Mof_O 	O 	0.2079	0.4234	0.07558	-0.663
Mof_O 	O 	0.2504	0.5288	0.0328	-0.761
Mof_O 	O 	0.1304	0.5132	0.0316	-0.957
Mof_C 	C 	0.4401	0.5213	0.2335	0.049
Mof_C 	C 	0.4474	0.5452	0.1949	-0.061
Mof_H 	H 	0.4751	0.5862	0.1904	0.032
Mof_C 	C 	0.4141	0.509	0.1628	0.108
Mof_C 	C 	0.366	0.4249	0.2081	0.134
Mof_C 	C 	0.3985	0.4613	0.2403	-0.025
Mof_H 	H 	0.3923	0.4454	0.2669	0.028
Mof_C 	C 	0.4164	0.5312	0.12	-0.338
Mof_H 	H 	0.3976	0.4971	0.1014	0.04
Mof_H 	H 	0.4581	0.5574	0.112	0.117
Mof_H 	H 	0.3951	0.5535	0.1188	0.094
Mof_C 	C 	0.3246	0.3593	0.2199	-0.336
Mof_H 	H 	0.3156	0.3568	0.2489	0.109
Mof_H 	H 	0.3444	0.3363	0.214	0.106
Mof_H 	H 	0.2876	0.3431	0.2043	0.095
Mof_C 	C 	0.3739	0.4496	0.16911	-0.112
Mof_C 	C 	0.3409	0.4102	0.1344	-0.016
Mof_C 	C 	0.3588	0.3732	0.1172	0.035
Mof_H 	H 	0.3922	0.3724	0.1285	0.016
Mof_C 	C 	0.3305	0.3376	0.0844	-0.224
Mof_C 	C 	0.2811	0.3384	0.069	0.133
Mof_H 	H 	0.2599	0.3129	0.0469	0.016
Mof_C 	C 	0.262	0.3748	0.0846	-0.225
Mof_C 	C 	0.2921	0.4107	0.1174	0.033
Mof_H 	H 	0.2791	0.4361	0.1285	0.019
Mof_C 	C 	0.3535	0.3009	0.0653	0.566
Mof_C 	C 	0.2127	0.3802	0.0656	0.572
Mof_Co	Co	0.167	0.463	0.0447	-0.594
Mof_C 	C 	0.4643	0.5335	0.1946	-0.097
Mof_H 	H 	0.5037	0.5654	0.1902	0.053
Mof_C 	C 	0.4306	0.4987	0.162	0.06
Mof_C 	C 	0.3488	0.4403	0.2074	0.013
Mof_C 	C 	0.3819	0.4757	0.2396	-0.128
Mof_H 	H 	0.3649	0.4688	0.266	0.053
Mof_C 	C 	0.4611	0.5165	0.1203	-0.328
Mof_H 	H 	0.4324	0.5141	0.1	0.145
Mof_H 	H 	0.4756	0.4893	0.1128	0.087
Mof_H 	H 	0.4948	0.5574	0.1215	0.07
Mof_C 	C 	0.2854	0.39	0.2133	-0.228
Mof_H 	H 	0.2582	0.3982	0.1976	0.087
Mof_H 	H 	0.275	0.3868	0.2421	0.08
Mof_H 	H 	0.2821	0.3525	0.204	0.063
Mof_H 	H 	0.3534	0.6057	0.9727	0.217
Mof_H 	H 	0.3632	0.5694	0.0082	0.219
Mof_H 	H 	0.3493	0.6214	0.0191	0.183
Mof_H 	H 	0.0773	0.5663	0.972	0.44
Mof_H 	H 	0.048	0.5382	0.015	0.405
Mof_H 	H 	0.111	0.5987	0.013	0.427
Mof_Fe	Fe	0.296	0.4652	0.4483	2.482
Mof_O 	O 	0.9091	0.3154	0.4255	-0.64
Mof_O 	O 	0.9405	0.2616	0.45858	-0.567
Mof_O 	O 	0.1596	0.3396	0.45883	-0.565
Mof_O 	O 	0.2155	0.4234	0.42442	-0.663
Mof_O 	O 	0.2784	0.5288	0.4672	-0.764
Mof_O 	O 	0.3828	0.5132	0.4684	-0.97
Mof_C 	C 	0.0812	0.5213	0.2665	0.049
Mof_C 	C 	0.0978	0.5452	0.3051	-0.059
Mof_H 	H 	0.1111	0.5862	0.3096	0.032
Mof_C 	C 	0.0949	0.509	0.3372	0.109
Mof_C 	C 	0.0589	0.4249	0.2919	0.134
Mof_C 	C 	0.0628	0.4613	0.2597	-0.024
Mof_H 	H 	0.0531	0.4454	0.2331	0.028
Mof_C 	C 	0.1148	0.5312	0.38	-0.335
Mof_H 	H 	0.0995	0.4971	0.3986	0.038
Mof_H 	H 	0.0993	0.5574	0.388	0.116
Mof_H 	H 	0.1584	0.5535	0.3812	0.093
Mof_C 	C 	0.0347	0.3593	0.2801	-0.336
Mof_H 	H 	0.0412	0.3568	0.2511	0.109
Mof_H 	H 	0.9919	0.3363	0.286	0.105
Mof_H 	H 	0.0555	0.3431	0.2957	0.095
Mof_C 	C 	0.0757	0.4496	0.33089	-0.111
Mof_C 	C 	0.0693	0.4102	0.3656	-0.017
Mof_C 	C 	0.0144	0.3732	0.3828	0.036
Mof_H 	H 	0.9802	0.3724	0.3715	0.016
Mof_C 	C 	0.0071	0.3376	0.4156	-0.226
Mof_C 	C 	0.0573	0.3384	0.431	0.133
Mof_H 	H 	0.053	0.3129	0.4531	0.013
Mof_C 	C 	0.1128	0.3748	0.4154	-0.227
Mof_C 	C 	0.1186	0.4107	0.3826	0.034
Mof_H 	H 	0.157	0.4361	0.3715	0.019
Mof_C 	C 	0.9474	0.3009	0.4347	0.566
Mof_C 	C 	0.1675	0.3802	0.4344	0.572
Mof_Co	Co	0.296	0.463	0.4553	-0.594
Mof_C 	C 	0.0692	0.5335	0.3054	-0.098
Mof_H 	H 	0.0617	0.5654	0.3098	0.053
Mof_C 	C 	0.0681	0.4987	0.338	0.058
Mof_C 	C 	0.0915	0.4403	0.2926	0.012
Mof_C 	C 	0.0938	0.4757	0.2604	-0.128
Mof_H 	H 	0.1039	0.4688	0.234	0.053
Mof_C 	C 	0.0554	0.5165	0.3797	-0.325
Mof_H 	H 	0.0817	0.5141	0.4	0.142
Mof_H 	H 	0.0137	0.4893	0.3872	0.086
Mof_H 	H 	0.0626	0.5574	0.3785	0.069
Mof_C 	C 	0.1046	0.39	0.2867	-0.227
Mof_H 	H 	0.14	0.3982	0.3024	0.087
Mof_H 	H 	0.1118	0.3868	0.2579	0.08
Mof_H 	H 	0.0704	0.3525	0.296	0.063
Mof_H 	H 	0.2523	0.6057	0.5273	0.201
Mof_H 	H 	0.2062	0.5694	0.4918	0.166
Mof_H 	H 	0.2721	0.6214	0.4809	0.164
Mof_H 	H 	0.489	0.5663	0.528	0.463
Mof_H 	H 	0.4902	0.5382	0.485	0.419
Mof_H 	H 	0.4877	0.5987	0.487	0.441
Mof_Fe	Fe	0.1692	0.704	0.4483	2.482
Mof_O 	O 	0.4063	0.0909	0.4255	-0.64
Mof_O 	O 	0.3211	0.0595	0.45858	-0.567
Mof_O 	O 	0.18	0.8404	0.45883	-0.565
Mof_O 	O 	0.2079	0.7845	0.42442	-0.663
Mof_O 	O 	0.2504	0.7216	0.4672	-0.764
Mof_O 	O 	0.1304	0.6172	0.4684	-0.97
Mof_C 	C 	0.4401	0.9188	0.2665	0.049
Mof_C 	C 	0.4474	0.9022	0.3051	-0.06
Mof_H 	H 	0.4751	0.8889	0.3096	0.032
Mof_C 	C 	0.4141	0.9051	0.3372	0.109
Mof_C 	C 	0.366	0.9411	0.2919	0.134
Mof_C 	C 	0.3985	0.9372	0.2597	-0.024
Mof_H 	H 	0.3923	0.9469	0.2331	0.028
Mof_C 	C 	0.4164	0.8852	0.38	-0.335
Mof_H 	H 	0.3976	0.9005	0.3986	0.038
Mof_H 	H 	0.4581	0.9007	0.388	0.116
Mof_H 	H 	0.3951	0.8416	0.3812	0.093
Mof_C 	C 	0.3246	0.9653	0.2801	-0.336
Mof_H 	H 	0.3156	0.9588	0.2511	0.109
Mof_H 	H 	0.3444	0.0081	0.286	0.106
Mof_H 	H 	0.2876	0.9445	0.2957	0.095
Mof_C 	C 	0.3739	0.9243	0.33089	-0.112
Mof_C 	C 	0.3409	0.9307	0.3656	-0.017
Mof_C 	C 	0.3588	0.9856	0.3828	0.035
Mof_H 	H 	0.3922	0.0198	0.3715	0.016
Mof_C 	C 	0.3305	0.9929	0.4156	-0.227
Mof_C 	C 	0.2811	0.9427	0.431	0.133
Mof_H 	H 	0.2599	0.947	0.4531	0.012
Mof_C 	C 	0.262	0.8872	0.4154	-0.227
Mof_C 	C 	0.2921	0.8814	0.3826	0.034
Mof_H 	H 	0.2791	0.843	0.3715	0.019
Mof_C 	C 	0.3535	0.0526	0.4347	0.566
Mof_C 	C 	0.2127	0.8325	0.4344	0.572
Mof_Co	Co	0.167	0.704	0.4553	-0.594
Mof_C 	C 	0.4643	0.9308	0.3054	-0.098
Mof_H 	H 	0.5037	0.9383	0.3098	0.053
Mof_C 	C 	0.4306	0.9319	0.338	0.058
Mof_C 	C 	0.3488	0.9085	0.2926	0.012
Mof_C 	C 	0.3819	0.9062	0.2604	-0.128
Mof_H 	H 	0.3649	0.8961	0.234	0.053
Mof_C 	C 	0.4611	0.9446	0.3797	-0.326
Mof_H 	H 	0.4324	0.9183	0.4	0.142
Mof_H 	H 	0.4756	0.9863	0.3872	0.086
Mof_H 	H 	0.4948	0.9374	0.3785	0.069
Mof_C 	C 	0.2854	0.8954	0.2867	-0.227
Mof_H 	H 	0.2582	0.86	0.3024	0.086
Mof_H 	H 	0.275	0.8882	0.2579	0.08
Mof_H 	H 	0.2821	0.9296	0.296	0.064
Mof_H 	H 	0.3534	0.7477	0.5273	0.201
Mof_H 	H 	0.3632	0.7938	0.4918	0.166
Mof_H 	H 	0.3493	0.7279	0.4809	0.164
Mof_H 	H 	0.0773	0.511	0.528	0.463
Mof_H 	H 	0.048	0.5098	0.485	0.419
Mof_H 	H 	0.111	0.5123	0.487	0.441
Mof_Fe	Fe	0.5348	0.8308	0.4483	2.482
Mof_O 	O 	0.6846	0.5937	0.4255	-0.64
Mof_O 	O 	0.7384	0.6789	0.45858	-0.567
Mof_O 	O 	0.6604	0.82	0.45883	-0.565
Mof_O 	O 	0.5766	0.7921	0.42442	-0.663
Mof_O 	O 	0.4712	0.7496	0.4672	-0.764
Mof_O 	O 	0.4868	0.8696	0.4684	-0.97
Mof_C 	C 	0.4787	0.5599	0.2665	0.049
Mof_C 	C 	0.4548	0.5526	0.3051	-0.059
Mof_H 	H 	0.4138	0.5249	0.3096	0.032
Mof_C 	C 	0.491	0.5859	0.3372	0.109
Mof_C 	C 	0.5751	0.634	0.2919	0.134
Mof_C 	C 	0.5387	0.6015	0.2597	-0.024
Mof_H 	H 	0.5546	0.6077	0.2331	0.028
Mof_C 	C 	0.4688	0.5836	0.38	-0.336
Mof_H 	H 	0.5029	0.6024	0.3986	0.039
Mof_H 	H 	0.4426	0.5419	0.388	0.116
Mof_H 	H 	0.4465	0.6049	0.3812	0.093
Mof_C 	C 	0.6407	0.6754	0.2801	-0.336
Mof_H 	H 	0.6432	0.6844	0.2511	0.109
Mof_H 	H 	0.6637	0.6556	0.286	0.106
Mof_H 	H 	0.6569	0.7124	0.2957	0.095
Mof_C 	C 	0.5504	0.6261	0.33089	-0.112
Mof_C 	C 	0.5898	0.6591	0.3656	-0.017
Mof_C 	C 	0.6268	0.6412	0.3828	0.035
Mof_H 	H 	0.6276	0.6078	0.3715	0.016
Mof_C 	C 	0.6624	0.6695	0.4156	-0.226
Mof_C 	C 	0.6616	0.7189	0.431	0.133
Mof_H 	H 	0.6871	0.7401	0.4531	0.013
Mof_C 	C 	0.6252	0.738	0.4154	-0.227
Mof_C 	C 	0.5893	0.7079	0.3826	0.034
Mof_H 	H 	0.5639	0.7209	0.3715	0.019
Mof_C 	C 	0.6991	0.6465	0.4347	0.566
Mof_C 	C 	0.6198	0.7873	0.4344	0.572
Mof_Co	Co	0.537	0.833	0.4553	-0.594
Mof_C 	C 	0.4665	0.5357	0.3054	-0.098
Mof_H 	H 	0.4346	0.4963	0.3098	0.053
Mof_C 	C 	0.5013	0.5694	0.338	0.058
Mof_C 	C 	0.5597	0.6512	0.2926	0.012
Mof_C 	C 	0.5243	0.6181	0.2604	-0.128
Mof_H 	H 	0.5312	0.6351	0.234	0.053
Mof_C 	C 	0.4835	0.5389	0.3797	-0.325
Mof_H 	H 	0.4859	0.5676	0.4	0.142
Mof_H 	H 	0.5107	0.5244	0.3872	0.086
Mof_H 	H 	0.4426	0.5052	0.3785	0.069
Mof_C 	C 	0.61	0.7146	0.2867	-0.227
Mof_H 	H 	0.6018	0.7418	0.3024	0.087
Mof_H 	H 	0.6132	0.725	0.2579	0.08
Mof_H 	H 	0.6475	0.7179	0.296	0.064
Mof_H 	H 	0.3943	0.6466	0.5273	0.201
Mof_H 	H 	0.4306	0.6368	0.4918	0.166
Mof_H 	H 	0.3786	0.6507	0.4809	0.164
Mof_H 	H 	0.4337	0.9227	0.528	0.463
Mof_H 	H 	0.4618	0.952	0.485	0.419
Mof_H 	H 	0.4013	0.889	0.487	0.441
Mof_Fe	Fe	0.704	0.5348	0.4483	2.482
Mof_O 	O 	0.0909	0.6846	0.4255	-0.64
Mof_O 	O 	0.0595	0.7384	0.45858	-0.567
Mof_O 	O 	0.8404	0.6604	0.45883	-0.565
Mof_O 	O 	0.7845	0.5766	0.42442	-0.663
Mof_O 	O 	0.7216	0.4712	0.4672	-0.764
Mof_O 	O 	0.6172	0.4868	0.4684	-0.97
Mof_C 	C 	0.9188	0.4787	0.2665	0.049
Mof_C 	C 	0.9022	0.4548	0.3051	-0.059
Mof_H 	H 	0.8889	0.4138	0.3096	0.032
Mof_C 	C 	0.9051	0.491	0.3372	0.109
Mof_C 	C 	0.9411	0.5751	0.2919	0.134
Mof_C 	C 	0.9372	0.5387	0.2597	-0.024
Mof_H 	H 	0.9469	0.5546	0.2331	0.028
Mof_C 	C 	0.8852	0.4688	0.38	-0.335
Mof_H 	H 	0.9005	0.5029	0.3986	0.038
Mof_H 	H 	0.9007	0.4426	0.388	0.116
Mof_H 	H 	0.8416	0.4465	0.3812	0.093
Mof_C 	C 	0.9653	0.6407	0.2801	-0.336
Mof_H 	H 	0.9588	0.6432	0.2511	0.109
Mof_H 	H 	0.0081	0.6637	0.286	0.105
Mof_H 	H 	0.9445	0.6569	0.2957	0.095
Mof_C 	C 	0.9243	0.5504	0.33089	-0.111
Mof_C 	C 	0.9307	0.5898	0.3656	-0.017
Mof_C 	C 	0.9856	0.6268	0.3828	0.036
Mof_H 	H 	0.0198	0.6276	0.3715	0.016
Mof_C 	C 	0.9929	0.6624	0.4156	-0.226
Mof_C 	C 	0.9427	0.6616	0.431	0.133
Mof_H 	H 	0.947	0.6871	0.4531	0.013
Mof_C 	C 	0.8872	0.6252	0.4154	-0.227
Mof_C 	C 	0.8814	0.5893	0.3826	0.034
Mof_H 	H 	0.843	0.5639	0.3715	0.019
Mof_C 	C 	0.0526	0.6991	0.4347	0.566
Mof_C 	C 	0.8325	0.6198	0.4344	0.572
Mof_Co	Co	0.704	0.537	0.4553	-0.594
Mof_C 	C 	0.9308	0.4665	0.3054	-0.098
Mof_H 	H 	0.9383	0.4346	0.3098	0.053
Mof_C 	C 	0.9319	0.5013	0.338	0.058
Mof_C 	C 	0.9085	0.5597	0.2926	0.012
Mof_C 	C 	0.9062	0.5243	0.2604	-0.128
Mof_H 	H 	0.8961	0.5312	0.234	0.053
Mof_C 	C 	0.9446	0.4835	0.3797	-0.325
Mof_H 	H 	0.9183	0.4859	0.4	0.142
Mof_H 	H 	0.9863	0.5107	0.3872	0.086
Mof_H 	H 	0.9374	0.4426	0.3785	0.069
Mof_C 	C 	0.8954	0.61	0.2867	-0.227
Mof_H 	H 	0.86	0.6018	0.3024	0.087
Mof_H 	H 	0.8882	0.6132	0.2579	0.08
Mof_H 	H 	0.9296	0.6475	0.296	0.063
Mof_H 	H 	0.7477	0.3943	0.5273	0.201
Mof_H 	H 	0.7938	0.4306	0.4918	0.166
Mof_H 	H 	0.7279	0.3786	0.4809	0.164
Mof_H 	H 	0.511	0.4337	0.528	0.463
Mof_H 	H 	0.5098	0.4618	0.485	0.419
Mof_H 	H 	0.5123	0.4013	0.487	0.441
Mof_Fe	Fe	0.8308	0.296	0.4483	2.482
Mof_O 	O 	0.5937	0.9091	0.4255	-0.64
Mof_O 	O 	0.6789	0.9405	0.45858	-0.567
Mof_O 	O 	0.82	0.1596	0.45883	-0.565
Mof_O 	O 	0.7921	0.2155	0.42442	-0.663
Mof_O 	O 	0.7496	0.2784	0.4672	-0.764
Mof_O 	O 	0.8696	0.3828	0.4684	-0.97
Mof_C 	C 	0.5599	0.0812	0.2665	0.049
Mof_C 	C 	0.5526	0.0978	0.3051	-0.06
Mof_H 	H 	0.5249	0.1111	0.3096	0.032
Mof_C 	C 	0.5859	0.0949	0.3372	0.109
Mof_C 	C 	0.634	0.0589	0.2919	0.134
Mof_C 	C 	0.6015	0.0628	0.2597	-0.024
Mof_H 	H 	0.6077	0.0531	0.2331	0.028
Mof_C 	C 	0.5836	0.1148	0.38	-0.335
Mof_H 	H 	0.6024	0.0995	0.3986	0.038
Mof_H 	H 	0.5419	0.0993	0.388	0.116
Mof_H 	H 	0.6049	0.1584	0.3812	0.093
Mof_C 	C 	0.6754	0.0347	0.2801	-0.336
Mof_H 	H 	0.6844	0.0412	0.2511	0.109
Mof_H 	H 	0.6556	0.9919	0.286	0.106
Mof_H 	H 	0.7124	0.0555	0.2957	0.095
Mof_C 	C 	0.6261	0.0757	0.33089	-0.112
Mof_C 	C 	0.6591	0.0693	0.3656	-0.017
Mof_C 	C 	0.6412	0.0144	0.3828	0.035
Mof_H 	H 	0.6078	0.9802	0.3715	0.016
Mof_C 	C 	0.6695	0.0071	0.4156	-0.227
Mof_C 	C 	0.7189	0.0573	0.431	0.133
Mof_H 	H 	0.7401	0.053	0.4531	0.012
Mof_C 	C 	0.738	0.1128	0.4154	-0.227
Mof_C 	C 	0.7079	0.1186	0.3826	0.034
Mof_H 	H 	0.7209	0.157	0.3715	0.019
Mof_C 	C 	0.6465	0.9474	0.4347	0.566
Mof_C 	C 	0.7873	0.1675	0.4344	0.572
Mof_Co	Co	0.833	0.296	0.4553	-0.594
Mof_C 	C 	0.5357	0.0692	0.3054	-0.098
Mof_H 	H 	0.4963	0.0617	0.3098	0.053
Mof_C 	C 	0.5694	0.0681	0.338	0.058
Mof_C 	C 	0.6512	0.0915	0.2926	0.012
Mof_C 	C 	0.6181	0.0938	0.2604	-0.128
Mof_H 	H 	0.6351	0.1039	0.234	0.053
Mof_C 	C 	0.5389	0.0554	0.3797	-0.326
Mof_H 	H 	0.5676	0.0817	0.4	0.142
Mof_H 	H 	0.5244	0.0137	0.3872	0.086
Mof_H 	H 	0.5052	0.0626	0.3785	0.069
Mof_C 	C 	0.7146	0.1046	0.2867	-0.227
Mof_H 	H 	0.7418	0.14	0.3024	0.086
Mof_H 	H 	0.725	0.1118	0.2579	0.08
Mof_H 	H 	0.7179	0.0704	0.296	0.064
Mof_H 	H 	0.6466	0.2523	0.5273	0.201
Mof_H 	H 	0.6368	0.2062	0.4918	0.166
Mof_H 	H 	0.6507	0.2721	0.4809	0.164
Mof_H 	H 	0.9227	0.489	0.528	0.463
Mof_H 	H 	0.952	0.4902	0.485	0.419
Mof_H 	H 	0.889	0.4877	0.487	0.441
Mof_Fe	Fe	0.4652	0.1692	0.4483	2.482
Mof_O 	O 	0.3154	0.4063	0.4255	-0.64
Mof_O 	O 	0.2616	0.3211	0.45858	-0.567
Mof_O 	O 	0.3396	0.18	0.45883	-0.565
Mof_O 	O 	0.4234	0.2079	0.42442	-0.663
Mof_O 	O 	0.5288	0.2504	0.4672	-0.764
Mof_O 	O 	0.5132	0.1304	0.4684	-0.97
Mof_C 	C 	0.5213	0.4401	0.2665	0.049
Mof_C 	C 	0.5452	0.4474	0.3051	-0.059
Mof_H 	H 	0.5862	0.4751	0.3096	0.032
Mof_C 	C 	0.509	0.4141	0.3372	0.109
Mof_C 	C 	0.4249	0.366	0.2919	0.134
Mof_C 	C 	0.4613	0.3985	0.2597	-0.024
Mof_H 	H 	0.4454	0.3923	0.2331	0.028
Mof_C 	C 	0.5312	0.4164	0.38	-0.336
Mof_H 	H 	0.4971	0.3976	0.3986	0.039
Mof_H 	H 	0.5574	0.4581	0.388	0.116
Mof_H 	H 	0.5535	0.3951	0.3812	0.093
Mof_C 	C 	0.3593	0.3246	0.2801	-0.336
Mof_H 	H 	0.3568	0.3156	0.2511	0.109
Mof_H 	H 	0.3363	0.3444	0.286	0.106
Mof_H 	H 	0.3431	0.2876	0.2957	0.095
Mof_C 	C 	0.4496	0.3739	0.33089	-0.112
Mof_C 	C 	0.4102	0.3409	0.3656	-0.017
Mof_C 	C 	0.3732	0.3588	0.3828	0.035
Mof_H 	H 	0.3724	0.3922	0.3715	0.016
Mof_C 	C 	0.3376	0.3305	0.4156	-0.226
Mof_C 	C 	0.3384	0.2811	0.431	0.133
Mof_H 	H 	0.3129	0.2599	0.4531	0.013
Mof_C 	C 	0.3748	0.262	0.4154	-0.227
Mof_C 	C 	0.4107	0.2921	0.3826	0.034
Mof_H 	H 	0.4361	0.2791	0.3715	0.019
Mof_C 	C 	0.3009	0.3535	0.4347	0.566
Mof_C 	C 	0.3802	0.2127	0.4344	0.572
Mof_Co	Co	0.463	0.167	0.4553	-0.594
Mof_C 	C 	0.5335	0.4643	0.3054	-0.098
Mof_H 	H 	0.5654	0.5037	0.3098	0.053
Mof_C 	C 	0.4987	0.4306	0.338	0.058
Mof_C 	C 	0.4403	0.3488	0.2926	0.012
Mof_C 	C 	0.4757	0.3819	0.2604	-0.128
Mof_H 	H 	0.4688	0.3649	0.234	0.053
Mof_C 	C 	0.5165	0.4611	0.3797	-0.325
Mof_H 	H 	0.5141	0.4324	0.4	0.142
Mof_H 	H 	0.4893	0.4756	0.3872	0.086
Mof_H 	H 	0.5574	0.4948	0.3785	0.069
Mof_C 	C 	0.39	0.2854	0.2867	-0.227
Mof_H 	H 	0.3982	0.2582	0.3024	0.087
Mof_H 	H 	0.3868	0.275	0.2579	0.08
Mof_H 	H 	0.3525	0.2821	0.296	0.064
Mof_H 	H 	0.6057	0.3534	0.5273	0.201
Mof_H 	H 	0.5694	0.3632	0.4918	0.166
Mof_H 	H 	0.6214	0.3493	0.4809	0.164
Mof_H 	H 	0.5663	0.0773	0.528	0.463
Mof_H 	H 	0.5382	0.048	0.485	0.419
Mof_H 	H 	0.5987	0.111	0.487	0.441
Mof_Fe	Fe	0.5348	0.704	0.9483	2.482
Mof_O 	O 	0.6846	0.0909	0.9255	-0.642
Mof_O 	O 	0.7384	0.0595	0.95858	-0.575
Mof_O 	O 	0.6604	0.8404	0.95883	-0.573
Mof_O 	O 	0.5766	0.7845	0.92442	-0.665
Mof_O 	O 	0.4712	0.7216	0.9672	-0.771
Mof_O 	O 	0.4868	0.6172	0.9684	-0.968
Mof_C 	C 	0.4787	0.9188	0.7665	0.049
Mof_C 	C 	0.4548	0.9022	0.8051	-0.061
Mof_H 	H 	0.4138	0.8889	0.8096	0.032
Mof_C 	C 	0.491	0.9051	0.8372	0.108
Mof_C 	C 	0.5751	0.9411	0.7919	0.133
Mof_C 	C 	0.5387	0.9372	0.7597	-0.025
Mof_H 	H 	0.5546	0.9469	0.7331	0.028
Mof_C 	C 	0.4688	0.8852	0.88	-0.337
Mof_H 	H 	0.5029	0.9005	0.8986	0.04
Mof_H 	H 	0.4426	0.9007	0.888	0.117
Mof_H 	H 	0.4465	0.8416	0.8812	0.094
Mof_C 	C 	0.6407	0.9653	0.7801	-0.335
Mof_H 	H 	0.6432	0.9588	0.7511	0.109
Mof_H 	H 	0.6637	0.0081	0.786	0.105
Mof_H 	H 	0.6569	0.9445	0.7957	0.095
Mof_C 	C 	0.5504	0.9243	0.83089	-0.111
Mof_C 	C 	0.5898	0.9307	0.8656	-0.018
Mof_C 	C 	0.6268	0.9856	0.8828	0.037
Mof_H 	H 	0.6276	0.0198	0.8715	0.015
Mof_C 	C 	0.6624	0.9929	0.9156	-0.229
Mof_C 	C 	0.6616	0.9427	0.931	0.135
Mof_H 	H 	0.6871	0.947	0.9531	0.009
Mof_C 	C 	0.6252	0.8872	0.9154	-0.23
Mof_C 	C 	0.5893	0.8814	0.8826	0.036
Mof_H 	H 	0.5639	0.843	0.8715	0.018
Mof_C 	C 	0.6991	0.0526	0.9347	0.567
Mof_C 	C 	0.6198	0.8325	0.9344	0.573
Mof_Co	Co	0.537	0.704	0.9553	-0.599
Mof_C 	C 	0.4665	0.9308	0.8054	-0.097
Mof_H 	H 	0.4346	0.9383	0.8098	0.053
Mof_C 	C 	0.5013	0.9319	0.838	0.06
Mof_C 	C 	0.5597	0.9085	0.7926	0.013
Mof_C 	C 	0.5243	0.9062	0.7604	-0.128
Mof_H 	H 	0.5312	0.8961	0.734	0.053
Mof_C 	C 	0.4835	0.9446	0.8797	-0.327
Mof_H 	H 	0.4859	0.9183	0.9	0.144
Mof_H 	H 	0.5107	0.9863	0.8872	0.087
Mof_H 	H 	0.4426	0.9374	0.8785	0.07
Mof_C 	C 	0.61	0.8954	0.7867	-0.227
Mof_H 	H 	0.6018	0.86	0.8024	0.086
Mof_H 	H 	0.6132	0.8882	0.7579	0.08
Mof_H 	H 	0.6475	0.9296	0.796	0.063
Mof_H 	H 	0.3943	0.7477	0.0273	0.157
Mof_H 	H 	0.4306	0.7938	0.9918	0.087
Mof_H 	H 	0.3786	0.7279	0.9809	0.119
Mof_H 	H 	0.4337	0.511	0.028	0.43
Mof_H 	H 	0.4618	0.5098	0.985	0.381
Mof_H 	H 	0.4013	0.5123	0.987	0.4
Mof_Fe	Fe	0.296	0.8308	0.9483	2.482
Mof_O 	O 	0.9091	0.5937	0.9255	-0.642
Mof_O 	O 	0.9405	0.6789	0.95858	-0.575
Mof_O 	O 	0.1596	0.82	0.95883	-0.573
Mof_O 	O 	0.2155	0.7921	0.92442	-0.665
Mof_O 	O 	0.2784	0.7496	0.9672	-0.771
Mof_O 	O 	0.3828	0.8696	0.9684	-0.968
Mof_C 	C 	0.0812	0.5599	0.7665	0.049
Mof_C 	C 	0.0978	0.5526	0.8051	-0.061
Mof_H 	H 	0.1111	0.5249	0.8096	0.032
Mof_C 	C 	0.0949	0.5859	0.8372	0.108
Mof_C 	C 	0.0589	0.634	0.7919	0.133
Mof_C 	C 	0.0628	0.6015	0.7597	-0.025
Mof_H 	H 	0.0531	0.6077	0.7331	0.028
Mof_C 	C 	0.1148	0.5836	0.88	-0.337
Mof_H 	H 	0.0995	0.6024	0.8986	0.04
Mof_H 	H 	0.0993	0.5419	0.888	0.117
Mof_H 	H 	0.1584	0.6049	0.8812	0.094
Mof_C 	C 	0.0347	0.6754	0.7801	-0.336
Mof_H 	H 	0.0412	0.6844	0.7511	0.109
Mof_H 	H 	0.9919	0.6556	0.786	0.106
Mof_H 	H 	0.0555	0.7124	0.7957	0.095
Mof_C 	C 	0.0757	0.6261	0.83089	-0.111
Mof_C 	C 	0.0693	0.6591	0.8656	-0.018
Mof_C 	C 	0.0144	0.6412	0.8828	0.037
Mof_H 	H 	0.9802	0.6078	0.8715	0.016
Mof_C 	C 	0.0071	0.6695	0.9156	-0.229
Mof_C 	C 	0.0573	0.7189	0.931	0.135
Mof_H 	H 	0.053	0.7401	0.9531	0.008
Mof_C 	C 	0.1128	0.738	0.9154	-0.23
Mof_C 	C 	0.1186	0.7079	0.8826	0.036
Mof_H 	H 	0.157	0.7209	0.8715	0.018
Mof_C 	C 	0.9474	0.6465	0.9347	0.568
Mof_C 	C 	0.1675	0.7873	0.9344	0.573
Mof_Co	Co	0.296	0.833	0.9553	-0.599
Mof_C 	C 	0.0692	0.5357	0.8054	-0.097
Mof_H 	H 	0.0617	0.4963	0.8098	0.053
Mof_C 	C 	0.0681	0.5694	0.838	0.06
Mof_C 	C 	0.0915	0.6512	0.7926	0.013
Mof_C 	C 	0.0938	0.6181	0.7604	-0.128
Mof_H 	H 	0.1039	0.6351	0.734	0.053
Mof_C 	C 	0.0554	0.5389	0.8797	-0.327
Mof_H 	H 	0.0817	0.5676	0.9	0.144
Mof_H 	H 	0.0137	0.5244	0.8872	0.087
Mof_H 	H 	0.0626	0.5052	0.8785	0.07
Mof_C 	C 	0.1046	0.7146	0.7867	-0.227
Mof_H 	H 	0.14	0.7418	0.8024	0.086
Mof_H 	H 	0.1118	0.725	0.7579	0.08
Mof_H 	H 	0.0704	0.7179	0.796	0.063
Mof_H 	H 	0.2523	0.6466	0.0273	0.157
Mof_H 	H 	0.2062	0.6368	0.9918	0.087
Mof_H 	H 	0.2721	0.6507	0.9809	0.119
Mof_H 	H 	0.489	0.9227	0.028	0.43
Mof_H 	H 	0.4902	0.952	0.985	0.381
Mof_H 	H 	0.4877	0.889	0.987	0.4
Mof_Fe	Fe	0.1692	0.4652	0.9483	2.482
Mof_O 	O 	0.4063	0.3154	0.9255	-0.642
Mof_O 	O 	0.3211	0.2616	0.95858	-0.575
Mof_O 	O 	0.18	0.3396	0.95883	-0.573
Mof_O 	O 	0.2079	0.4234	0.92442	-0.665
Mof_O 	O 	0.2504	0.5288	0.9672	-0.771
Mof_O 	O 	0.1304	0.5132	0.9684	-0.968
Mof_C 	C 	0.4401	0.5213	0.7665	0.049
Mof_C 	C 	0.4474	0.5452	0.8051	-0.061
Mof_H 	H 	0.4751	0.5862	0.8096	0.032
Mof_C 	C 	0.4141	0.509	0.8372	0.108
Mof_C 	C 	0.366	0.4249	0.7919	0.134
Mof_C 	C 	0.3985	0.4613	0.7597	-0.025
Mof_H 	H 	0.3923	0.4454	0.7331	0.028
Mof_C 	C 	0.4164	0.5312	0.88	-0.337
Mof_H 	H 	0.3976	0.4971	0.8986	0.04
Mof_H 	H 	0.4581	0.5574	0.888	0.117
Mof_H 	H 	0.3951	0.5535	0.8812	0.094
Mof_C 	C 	0.3246	0.3593	0.7801	-0.336
Mof_H 	H 	0.3156	0.3568	0.7511	0.109
Mof_H 	H 	0.3444	0.3363	0.786	0.105
Mof_H 	H 	0.2876	0.3431	0.7957	0.095
Mof_C 	C 	0.3739	0.4496	0.83089	-0.111
Mof_C 	C 	0.3409	0.4102	0.8656	-0.018
Mof_C 	C 	0.3588	0.3732	0.8828	0.037
Mof_H 	H 	0.3922	0.3724	0.8715	0.016
Mof_C 	C 	0.3305	0.3376	0.9156	-0.229
Mof_C 	C 	0.2811	0.3384	0.931	0.135
Mof_H 	H 	0.2599	0.3129	0.9531	0.009
Mof_C 	C 	0.262	0.3748	0.9154	-0.23
Mof_C 	C 	0.2921	0.4107	0.8826	0.036
Mof_H 	H 	0.2791	0.4361	0.8715	0.018
Mof_C 	C 	0.3535	0.3009	0.9347	0.567
Mof_C 	C 	0.2127	0.3802	0.9344	0.573
Mof_Co	Co	0.167	0.463	0.9553	-0.599
Mof_C 	C 	0.4643	0.5335	0.8054	-0.097
Mof_H 	H 	0.5037	0.5654	0.8098	0.053
Mof_C 	C 	0.4306	0.4987	0.838	0.06
Mof_C 	C 	0.3488	0.4403	0.7926	0.012
Mof_C 	C 	0.3819	0.4757	0.7604	-0.128
Mof_H 	H 	0.3649	0.4688	0.734	0.053
Mof_C 	C 	0.4611	0.5165	0.8797	-0.327
Mof_H 	H 	0.4324	0.5141	0.9	0.144
Mof_H 	H 	0.4756	0.4893	0.8872	0.087
Mof_H 	H 	0.4948	0.5574	0.8785	0.07
Mof_C 	C 	0.2854	0.39	0.7867	-0.227
Mof_H 	H 	0.2582	0.3982	0.8024	0.086
Mof_H 	H 	0.275	0.3868	0.7579	0.08
Mof_H 	H 	0.2821	0.3525	0.796	0.063
Mof_H 	H 	0.3534	0.6057	0.0273	0.157
Mof_H 	H 	0.3632	0.5694	0.9918	0.087
Mof_H 	H 	0.3493	0.6214	0.9809	0.119
Mof_H 	H 	0.0773	0.5663	0.028	0.43
Mof_H 	H 	0.048	0.5382	0.985	0.381
Mof_H 	H 	0.111	0.5987	0.987	0.4
Mof_Fe	Fe	0.4652	0.296	0.9483	2.482
Mof_O 	O 	0.3154	0.9091	0.9255	-0.642
Mof_O 	O 	0.2616	0.9405	0.95858	-0.575
Mof_O 	O 	0.3396	0.1596	0.95883	-0.573
Mof_O 	O 	0.4234	0.2155	0.92442	-0.665
Mof_O 	O 	0.5288	0.2784	0.9672	-0.771
Mof_O 	O 	0.5132	0.3828	0.9684	-0.968
Mof_C 	C 	0.5213	0.0812	0.7665	0.049
Mof_C 	C 	0.5452	0.0978	0.8051	-0.061
Mof_H 	H 	0.5862	0.1111	0.8096	0.032
Mof_C 	C 	0.509	0.0949	0.8372	0.108
Mof_C 	C 	0.4249	0.0589	0.7919	0.133
Mof_C 	C 	0.4613	0.0628	0.7597	-0.025
Mof_H 	H 	0.4454	0.0531	0.7331	0.028
Mof_C 	C 	0.5312	0.1148	0.88	-0.337
Mof_H 	H 	0.4971	0.0995	0.8986	0.04
Mof_H 	H 	0.5574	0.0993	0.888	0.117
Mof_H 	H 	0.5535	0.1584	0.8812	0.094
Mof_C 	C 	0.3593	0.0347	0.7801	-0.335
Mof_H 	H 	0.3568	0.0412	0.7511	0.109
Mof_H 	H 	0.3363	0.9919	0.786	0.105
Mof_H 	H 	0.3431	0.0555	0.7957	0.095
Mof_C 	C 	0.4496	0.0757	0.83089	-0.111
Mof_C 	C 	0.4102	0.0693	0.8656	-0.018
Mof_C 	C 	0.3732	0.0144	0.8828	0.037
Mof_H 	H 	0.3724	0.9802	0.8715	0.015
Mof_C 	C 	0.3376	0.0071	0.9156	-0.229
Mof_C 	C 	0.3384	0.0573	0.931	0.135
Mof_H 	H 	0.3129	0.053	0.9531	0.009
Mof_C 	C 	0.3748	0.1128	0.9154	-0.23
Mof_C 	C 	0.4107	0.1186	0.8826	0.036
Mof_H 	H 	0.4361	0.157	0.8715	0.018
Mof_C 	C 	0.3009	0.9474	0.9347	0.567
Mof_C 	C 	0.3802	0.1675	0.9344	0.573
Mof_Co	Co	0.463	0.296	0.9553	-0.599
Mof_C 	C 	0.5335	0.0692	0.8054	-0.097
Mof_H 	H 	0.5654	0.0617	0.8098	0.053
Mof_C 	C 	0.4987	0.0681	0.838	0.06
Mof_C 	C 	0.4403	0.0915	0.7926	0.013
Mof_C 	C 	0.4757	0.0938	0.7604	-0.128
Mof_H 	H 	0.4688	0.1039	0.734	0.053
Mof_C 	C 	0.5165	0.0554	0.8797	-0.327
Mof_H 	H 	0.5141	0.0817	0.9	0.144
Mof_H 	H 	0.4893	0.0137	0.8872	0.087
Mof_H 	H 	0.5574	0.0626	0.8785	0.07
Mof_C 	C 	0.39	0.1046	0.7867	-0.227
Mof_H 	H 	0.3982	0.14	0.8024	0.086
Mof_H 	H 	0.3868	0.1118	0.7579	0.08
Mof_H 	H 	0.3525	0.0704	0.796	0.063
Mof_H 	H 	0.6057	0.2523	0.0273	0.157
Mof_H 	H 	0.5694	0.2062	0.9918	0.087
Mof_H 	H 	0.6214	0.2721	0.9809	0.119
Mof_H 	H 	0.5663	0.489	0.028	0.43
Mof_H 	H 	0.5382	0.4902	0.985	0.381
Mof_H 	H 	0.5987	0.4877	0.987	0.4
Mof_Fe	Fe	0.704	0.1692	0.9483	2.482
Mof_O 	O 	0.0909	0.4063	0.9255	-0.642
Mof_O 	O 	0.0595	0.3211	0.95858	-0.575
Mof_O 	O 	0.8404	0.18	0.95883	-0.573
Mof_O 	O 	0.7845	0.2079	0.92442	-0.665
Mof_O 	O 	0.7216	0.2504	0.9672	-0.771
Mof_O 	O 	0.6172	0.1304	0.9684	-0.968
Mof_C 	C 	0.9188	0.4401	0.7665	0.049
Mof_C 	C 	0.9022	0.4474	0.8051	-0.061
Mof_H 	H 	0.8889	0.4751	0.8096	0.032
Mof_C 	C 	0.9051	0.4141	0.8372	0.108
Mof_C 	C 	0.9411	0.366	0.7919	0.133
Mof_C 	C 	0.9372	0.3985	0.7597	-0.025
Mof_H 	H 	0.9469	0.3923	0.7331	0.028
Mof_C 	C 	0.8852	0.4164	0.88	-0.337
Mof_H 	H 	0.9005	0.3976	0.8986	0.04
Mof_H 	H 	0.9007	0.4581	0.888	0.117
Mof_H 	H 	0.8416	0.3951	0.8812	0.094
Mof_C 	C 	0.9653	0.3246	0.7801	-0.336
Mof_H 	H 	0.9588	0.3156	0.7511	0.109
Mof_H 	H 	0.0081	0.3444	0.786	0.106
Mof_H 	H 	0.9445	0.2876	0.7957	0.095
Mof_C 	C 	0.9243	0.3739	0.83089	-0.111
Mof_C 	C 	0.9307	0.3409	0.8656	-0.018
Mof_C 	C 	0.9856	0.3588	0.8828	0.037
Mof_H 	H 	0.0198	0.3922	0.8715	0.016
Mof_C 	C 	0.9929	0.3305	0.9156	-0.229
Mof_C 	C 	0.9427	0.2811	0.931	0.135
Mof_H 	H 	0.947	0.2599	0.9531	0.008
Mof_C 	C 	0.8872	0.262	0.9154	-0.23
Mof_C 	C 	0.8814	0.2921	0.8826	0.036
Mof_H 	H 	0.843	0.2791	0.8715	0.018
Mof_C 	C 	0.0526	0.3535	0.9347	0.568
Mof_C 	C 	0.8325	0.2127	0.9344	0.573
Mof_Co	Co	0.704	0.167	0.9553	-0.599
Mof_C 	C 	0.9308	0.4643	0.8054	-0.097
Mof_H 	H 	0.9383	0.5037	0.8098	0.053
Mof_C 	C 	0.9319	0.4306	0.838	0.06
Mof_C 	C 	0.9085	0.3488	0.7926	0.013
Mof_C 	C 	0.9062	0.3819	0.7604	-0.128
Mof_H 	H 	0.8961	0.3649	0.734	0.053
Mof_C 	C 	0.9446	0.4611	0.8797	-0.327
Mof_H 	H 	0.9183	0.4324	0.9	0.144
Mof_H 	H 	0.9863	0.4756	0.8872	0.087
Mof_H 	H 	0.9374	0.4948	0.8785	0.07
Mof_C 	C 	0.8954	0.2854	0.7867	-0.227
Mof_H 	H 	0.86	0.2582	0.8024	0.086
Mof_H 	H 	0.8882	0.275	0.7579	0.08
Mof_H 	H 	0.9296	0.2821	0.796	0.063
Mof_H 	H 	0.7477	0.3534	0.0273	0.157
Mof_H 	H 	0.7938	0.3632	0.9918	0.087
Mof_H 	H 	0.7279	0.3493	0.9809	0.119
Mof_H 	H 	0.511	0.0773	0.028	0.43
Mof_H 	H 	0.5098	0.048	0.985	0.381
Mof_H 	H 	0.5123	0.111	0.987	0.4
Mof_Fe	Fe	0.8308	0.5348	0.9483	2.482
Mof_O 	O 	0.5937	0.6846	0.9255	-0.642
Mof_O 	O 	0.6789	0.7384	0.95858	-0.575
Mof_O 	O 	0.82	0.6604	0.95883	-0.573
Mof_O 	O 	0.7921	0.5766	0.92442	-0.665
Mof_O 	O 	0.7496	0.4712	0.9672	-0.771
Mof_O 	O 	0.8696	0.4868	0.9684	-0.968
Mof_C 	C 	0.5599	0.4787	0.7665	0.049
Mof_C 	C 	0.5526	0.4548	0.8051	-0.061
Mof_H 	H 	0.5249	0.4138	0.8096	0.032
Mof_C 	C 	0.5859	0.491	0.8372	0.108
Mof_C 	C 	0.634	0.5751	0.7919	0.134
Mof_C 	C 	0.6015	0.5387	0.7597	-0.025
Mof_H 	H 	0.6077	0.5546	0.7331	0.028
Mof_C 	C 	0.5836	0.4688	0.88	-0.337
Mof_H 	H 	0.6024	0.5029	0.8986	0.04
Mof_H 	H 	0.5419	0.4426	0.888	0.117
Mof_H 	H 	0.6049	0.4465	0.8812	0.094
Mof_C 	C 	0.6754	0.6407	0.7801	-0.336
Mof_H 	H 	0.6844	0.6432	0.7511	0.109
Mof_H 	H 	0.6556	0.6637	0.786	0.105
Mof_H 	H 	0.7124	0.6569	0.7957	0.095
Mof_C 	C 	0.6261	0.5504	0.83089	-0.111
Mof_C 	C 	0.6591	0.5898	0.8656	-0.018
Mof_C 	C 	0.6412	0.6268	0.8828	0.037
Mof_H 	H 	0.6078	0.6276	0.8715	0.016
Mof_C 	C 	0.6695	0.6624	0.9156	-0.229
Mof_C 	C 	0.7189	0.6616	0.931	0.135
Mof_H 	H 	0.7401	0.6871	0.9531	0.009
Mof_C 	C 	0.738	0.6252	0.9154	-0.23
Mof_C 	C 	0.7079	0.5893	0.8826	0.036
Mof_H 	H 	0.7209	0.5639	0.8715	0.018
Mof_C 	C 	0.6465	0.6991	0.9347	0.567
Mof_C 	C 	0.7873	0.6198	0.9344	0.573
Mof_Co	Co	0.833	0.537	0.9553	-0.599
Mof_C 	C 	0.5357	0.4665	0.8054	-0.097
Mof_H 	H 	0.4963	0.4346	0.8098	0.053
Mof_C 	C 	0.5694	0.5013	0.838	0.06
Mof_C 	C 	0.6512	0.5597	0.7926	0.012
Mof_C 	C 	0.6181	0.5243	0.7604	-0.128
Mof_H 	H 	0.6351	0.5312	0.734	0.053
Mof_C 	C 	0.5389	0.4835	0.8797	-0.327
Mof_H 	H 	0.5676	0.4859	0.9	0.144
Mof_H 	H 	0.5244	0.5107	0.8872	0.087
Mof_H 	H 	0.5052	0.4426	0.8785	0.07
Mof_C 	C 	0.7146	0.61	0.7867	-0.227
Mof_H 	H 	0.7418	0.6018	0.8024	0.086
Mof_H 	H 	0.725	0.6132	0.7579	0.08
Mof_H 	H 	0.7179	0.6475	0.796	0.063
Mof_H 	H 	0.6466	0.3943	0.0273	0.157
Mof_H 	H 	0.6368	0.4306	0.9918	0.087
Mof_H 	H 	0.6507	0.3786	0.9809	0.119
Mof_H 	H 	0.9227	0.4337	0.028	0.43
Mof_H 	H 	0.952	0.4618	0.985	0.381
Mof_H 	H 	0.889	0.4013	0.987	0.4
Mof_Fe	Fe	0.704	0.5348	0.5517	2.482
Mof_O 	O 	0.0909	0.6846	0.5745	-0.64
Mof_O 	O 	0.0595	0.7384	0.54142	-0.567
Mof_O 	O 	0.8404	0.6604	0.54117	-0.565
Mof_O 	O 	0.7845	0.5766	0.57558	-0.663
Mof_O 	O 	0.7216	0.4712	0.5328	-0.764
Mof_O 	O 	0.6172	0.4868	0.5316	-0.97
Mof_C 	C 	0.9188	0.4787	0.7335	0.049
Mof_C 	C 	0.9022	0.4548	0.6949	-0.06
Mof_H 	H 	0.8889	0.4138	0.6904	0.032
Mof_C 	C 	0.9051	0.491	0.6628	0.109
Mof_C 	C 	0.9411	0.5751	0.7081	0.134
Mof_C 	C 	0.9372	0.5387	0.7403	-0.024
Mof_H 	H 	0.9469	0.5546	0.7669	0.028
Mof_C 	C 	0.8852	0.4688	0.62	-0.335
Mof_H 	H 	0.9005	0.5029	0.6014	0.038
Mof_H 	H 	0.9007	0.4426	0.612	0.116
Mof_H 	H 	0.8416	0.4465	0.6188	0.093
Mof_C 	C 	0.9653	0.6407	0.7199	-0.336
Mof_H 	H 	0.9588	0.6432	0.7489	0.109
Mof_H 	H 	0.0081	0.6637	0.714	0.105
Mof_H 	H 	0.9445	0.6569	0.7043	0.095
Mof_C 	C 	0.9243	0.5504	0.66911	-0.111
Mof_C 	C 	0.9307	0.5898	0.6344	-0.017
Mof_C 	C 	0.9856	0.6268	0.6172	0.035
Mof_H 	H 	0.0198	0.6276	0.6285	0.016
Mof_C 	C 	0.9929	0.6624	0.5844	-0.226
Mof_C 	C 	0.9427	0.6616	0.569	0.133
Mof_H 	H 	0.947	0.6871	0.5469	0.013
Mof_C 	C 	0.8872	0.6252	0.5846	-0.227
Mof_C 	C 	0.8814	0.5893	0.6174	0.034
Mof_H 	H 	0.843	0.5639	0.6285	0.019
Mof_C 	C 	0.0526	0.6991	0.5653	0.566
Mof_C 	C 	0.8325	0.6198	0.5656	0.572
Mof_Co	Co	0.704	0.537	0.5447	-0.594
Mof_C 	C 	0.9308	0.4665	0.6946	-0.098
Mof_H 	H 	0.9383	0.4346	0.6902	0.053
Mof_C 	C 	0.9319	0.5013	0.662	0.058
Mof_C 	C 	0.9085	0.5597	0.7074	0.012
Mof_C 	C 	0.9062	0.5243	0.7396	-0.128
Mof_H 	H 	0.8961	0.5312	0.766	0.053
Mof_C 	C 	0.9446	0.4835	0.6203	-0.325
Mof_H 	H 	0.9183	0.4859	0.6	0.142
Mof_H 	H 	0.9863	0.5107	0.6128	0.086
Mof_H 	H 	0.9374	0.4426	0.6215	0.069
Mof_C 	C 	0.8954	0.61	0.7133	-0.227
Mof_H 	H 	0.86	0.6018	0.6976	0.087
Mof_H 	H 	0.8882	0.6132	0.7421	0.08
Mof_H 	H 	0.9296	0.6475	0.704	0.063
Mof_H 	H 	0.7477	0.3943	0.4727	0.201
Mof_H 	H 	0.7938	0.4306	0.5082	0.166
Mof_H 	H 	0.7279	0.3786	0.5191	0.164
Mof_H 	H 	0.511	0.4337	0.472	0.463
Mof_H 	H 	0.5098	0.4618	0.515	0.419
Mof_H 	H 	0.5123	0.4013	0.513	0.441
Mof_Fe	Fe	0.8308	0.296	0.5517	2.482
Mof_O 	O 	0.5937	0.9091	0.5745	-0.64
Mof_O 	O 	0.6789	0.9405	0.54142	-0.567
Mof_O 	O 	0.82	0.1596	0.54117	-0.565
Mof_O 	O 	0.7921	0.2155	0.57558	-0.663
Mof_O 	O 	0.7496	0.2784	0.5328	-0.764
Mof_O 	O 	0.8696	0.3828	0.5316	-0.97
Mof_C 	C 	0.5599	0.0812	0.7335	0.049
Mof_C 	C 	0.5526	0.0978	0.6949	-0.06
Mof_H 	H 	0.5249	0.1111	0.6904	0.032
Mof_C 	C 	0.5859	0.0949	0.6628	0.109
Mof_C 	C 	0.634	0.0589	0.7081	0.134
Mof_C 	C 	0.6015	0.0628	0.7403	-0.024
Mof_H 	H 	0.6077	0.0531	0.7669	0.028
Mof_C 	C 	0.5836	0.1148	0.62	-0.335
Mof_H 	H 	0.6024	0.0995	0.6014	0.038
Mof_H 	H 	0.5419	0.0993	0.612	0.116
Mof_H 	H 	0.6049	0.1584	0.6188	0.093
Mof_C 	C 	0.6754	0.0347	0.7199	-0.336
Mof_H 	H 	0.6844	0.0412	0.7489	0.109
Mof_H 	H 	0.6556	0.9919	0.714	0.106
Mof_H 	H 	0.7124	0.0555	0.7043	0.095
Mof_C 	C 	0.6261	0.0757	0.66911	-0.112
Mof_C 	C 	0.6591	0.0693	0.6344	-0.017
Mof_C 	C 	0.6412	0.0144	0.6172	0.035
Mof_H 	H 	0.6078	0.9802	0.6285	0.016
Mof_C 	C 	0.6695	0.0071	0.5844	-0.227
Mof_C 	C 	0.7189	0.0573	0.569	0.133
Mof_H 	H 	0.7401	0.053	0.5469	0.012
Mof_C 	C 	0.738	0.1128	0.5846	-0.227
Mof_C 	C 	0.7079	0.1186	0.6174	0.034
Mof_H 	H 	0.7209	0.157	0.6285	0.019
Mof_C 	C 	0.6465	0.9474	0.5653	0.566
Mof_C 	C 	0.7873	0.1675	0.5656	0.572
Mof_Co	Co	0.833	0.296	0.5447	-0.594
Mof_C 	C 	0.5357	0.0692	0.6946	-0.098
Mof_H 	H 	0.4963	0.0617	0.6902	0.053
Mof_C 	C 	0.5694	0.0681	0.662	0.059
Mof_C 	C 	0.6512	0.0915	0.7074	0.012
Mof_C 	C 	0.6181	0.0938	0.7396	-0.128
Mof_H 	H 	0.6351	0.1039	0.766	0.053
Mof_C 	C 	0.5389	0.0554	0.6203	-0.326
Mof_H 	H 	0.5676	0.0817	0.6	0.142
Mof_H 	H 	0.5244	0.0137	0.6128	0.086
Mof_H 	H 	0.5052	0.0626	0.6215	0.069
Mof_C 	C 	0.7146	0.1046	0.7133	-0.227
Mof_H 	H 	0.7418	0.14	0.6976	0.086
Mof_H 	H 	0.725	0.1118	0.7421	0.08
Mof_H 	H 	0.7179	0.0704	0.704	0.064
Mof_H 	H 	0.6466	0.2523	0.4727	0.201
Mof_H 	H 	0.6368	0.2062	0.5082	0.166
Mof_H 	H 	0.6507	0.2721	0.5191	0.164
Mof_H 	H 	0.9227	0.489	0.472	0.463
Mof_H 	H 	0.952	0.4902	0.515	0.419
Mof_H 	H 	0.889	0.4877	0.513	0.441
Mof_Fe	Fe	0.4652	0.1692	0.5517	2.482
Mof_O 	O 	0.3154	0.4063	0.5745	-0.64
Mof_O 	O 	0.2616	0.3211	0.54142	-0.567
Mof_O 	O 	0.3396	0.18	0.54117	-0.565
Mof_O 	O 	0.4234	0.2079	0.57558	-0.663
Mof_O 	O 	0.5288	0.2504	0.5328	-0.764
Mof_O 	O 	0.5132	0.1304	0.5316	-0.97
Mof_C 	C 	0.5213	0.4401	0.7335	0.049
Mof_C 	C 	0.5452	0.4474	0.6949	-0.059
Mof_H 	H 	0.5862	0.4751	0.6904	0.032
Mof_C 	C 	0.509	0.4141	0.6628	0.109
Mof_C 	C 	0.4249	0.366	0.7081	0.134
Mof_C 	C 	0.4613	0.3985	0.7403	-0.024
Mof_H 	H 	0.4454	0.3923	0.7669	0.028
Mof_C 	C 	0.5312	0.4164	0.62	-0.335
Mof_H 	H 	0.4971	0.3976	0.6014	0.039
Mof_H 	H 	0.5574	0.4581	0.612	0.116
Mof_H 	H 	0.5535	0.3951	0.6188	0.093
Mof_C 	C 	0.3593	0.3246	0.7199	-0.336
Mof_H 	H 	0.3568	0.3156	0.7489	0.109
Mof_H 	H 	0.3363	0.3444	0.714	0.106
Mof_H 	H 	0.3431	0.2876	0.7043	0.095
Mof_C 	C 	0.4496	0.3739	0.66911	-0.112
Mof_C 	C 	0.4102	0.3409	0.6344	-0.017
Mof_C 	C 	0.3732	0.3588	0.6172	0.035
Mof_H 	H 	0.3724	0.3922	0.6285	0.016
Mof_C 	C 	0.3376	0.3305	0.5844	-0.226
Mof_C 	C 	0.3384	0.2811	0.569	0.133
Mof_H 	H 	0.3129	0.2599	0.5469	0.013
Mof_C 	C 	0.3748	0.262	0.5846	-0.227
Mof_C 	C 	0.4107	0.2921	0.6174	0.034
Mof_H 	H 	0.4361	0.2791	0.6285	0.019
Mof_C 	C 	0.3009	0.3535	0.5653	0.566
Mof_C 	C 	0.3802	0.2127	0.5656	0.572
Mof_Co	Co	0.463	0.167	0.5447	-0.594
Mof_C 	C 	0.5335	0.4643	0.6946	-0.098
Mof_H 	H 	0.5654	0.5037	0.6902	0.053
Mof_C 	C 	0.4987	0.4306	0.662	0.058
Mof_C 	C 	0.4403	0.3488	0.7074	0.012
Mof_C 	C 	0.4757	0.3819	0.7396	-0.128
Mof_H 	H 	0.4688	0.3649	0.766	0.053
Mof_C 	C 	0.5165	0.4611	0.6203	-0.325
Mof_H 	H 	0.5141	0.4324	0.6	0.142
Mof_H 	H 	0.4893	0.4756	0.6128	0.086
Mof_H 	H 	0.5574	0.4948	0.6215	0.069
Mof_C 	C 	0.39	0.2854	0.7133	-0.227
Mof_H 	H 	0.3982	0.2582	0.6976	0.087
Mof_H 	H 	0.3868	0.275	0.7421	0.08
Mof_H 	H 	0.3525	0.2821	0.704	0.064
Mof_H 	H 	0.6057	0.3534	0.4727	0.201
Mof_H 	H 	0.5694	0.3632	0.5082	0.166
Mof_H 	H 	0.6214	0.3493	0.5191	0.164
Mof_H 	H 	0.5663	0.0773	0.472	0.463
Mof_H 	H 	0.5382	0.048	0.515	0.419
Mof_H 	H 	0.5987	0.111	0.513	0.441
Mof_Fe	Fe	0.296	0.4652	0.5517	2.482
Mof_O 	O 	0.9091	0.3154	0.5745	-0.64
Mof_O 	O 	0.9405	0.2616	0.54142	-0.567
Mof_O 	O 	0.1596	0.3396	0.54117	-0.565
Mof_O 	O 	0.2155	0.4234	0.57558	-0.663
Mof_O 	O 	0.2784	0.5288	0.5328	-0.764
Mof_O 	O 	0.3828	0.5132	0.5316	-0.97
Mof_C 	C 	0.0812	0.5213	0.7335	0.049
Mof_C 	C 	0.0978	0.5452	0.6949	-0.06
Mof_H 	H 	0.1111	0.5862	0.6904	0.032
Mof_C 	C 	0.0949	0.509	0.6628	0.109
Mof_C 	C 	0.0589	0.4249	0.7081	0.134
Mof_C 	C 	0.0628	0.4613	0.7403	-0.024
Mof_H 	H 	0.0531	0.4454	0.7669	0.028
Mof_C 	C 	0.1148	0.5312	0.62	-0.335
Mof_H 	H 	0.0995	0.4971	0.6014	0.038
Mof_H 	H 	0.0993	0.5574	0.612	0.116
Mof_H 	H 	0.1584	0.5535	0.6188	0.093
Mof_C 	C 	0.0347	0.3593	0.7199	-0.336
Mof_H 	H 	0.0412	0.3568	0.7489	0.109
Mof_H 	H 	0.9919	0.3363	0.714	0.105
Mof_H 	H 	0.0555	0.3431	0.7043	0.095
Mof_C 	C 	0.0757	0.4496	0.66911	-0.111
Mof_C 	C 	0.0693	0.4102	0.6344	-0.017
Mof_C 	C 	0.0144	0.3732	0.6172	0.035
Mof_H 	H 	0.9802	0.3724	0.6285	0.016
Mof_C 	C 	0.0071	0.3376	0.5844	-0.226
Mof_C 	C 	0.0573	0.3384	0.569	0.133
Mof_H 	H 	0.053	0.3129	0.5469	0.013
Mof_C 	C 	0.1128	0.3748	0.5846	-0.227
Mof_C 	C 	0.1186	0.4107	0.6174	0.034
Mof_H 	H 	0.157	0.4361	0.6285	0.019
Mof_C 	C 	0.9474	0.3009	0.5653	0.566
Mof_C 	C 	0.1675	0.3802	0.5656	0.572
Mof_Co	Co	0.296	0.463	0.5447	-0.594
Mof_C 	C 	0.0692	0.5335	0.6946	-0.098
Mof_H 	H 	0.0617	0.5654	0.6902	0.053
Mof_C 	C 	0.0681	0.4987	0.662	0.058
Mof_C 	C 	0.0915	0.4403	0.7074	0.012
Mof_C 	C 	0.0938	0.4757	0.7396	-0.128
Mof_H 	H 	0.1039	0.4688	0.766	0.053
Mof_C 	C 	0.0554	0.5165	0.6203	-0.325
Mof_H 	H 	0.0817	0.5141	0.6	0.142
Mof_H 	H 	0.0137	0.4893	0.6128	0.086
Mof_H 	H 	0.0626	0.5574	0.6215	0.069
Mof_C 	C 	0.1046	0.39	0.7133	-0.227
Mof_H 	H 	0.14	0.3982	0.6976	0.087
Mof_H 	H 	0.1118	0.3868	0.7421	0.08
Mof_H 	H 	0.0704	0.3525	0.704	0.063
Mof_H 	H 	0.2523	0.6057	0.4727	0.201
Mof_H 	H 	0.2062	0.5694	0.5082	0.166
Mof_H 	H 	0.2721	0.6214	0.5191	0.164
Mof_H 	H 	0.489	0.5663	0.472	0.463
Mof_H 	H 	0.4902	0.5382	0.515	0.419
Mof_H 	H 	0.4877	0.5987	0.513	0.441
Mof_Fe	Fe	0.1692	0.704	0.5517	2.482
Mof_O 	O 	0.4063	0.0909	0.5745	-0.64
Mof_O 	O 	0.3211	0.0595	0.54142	-0.567
Mof_O 	O 	0.18	0.8404	0.54117	-0.565
Mof_O 	O 	0.2079	0.7845	0.57558	-0.663
Mof_O 	O 	0.2504	0.7216	0.5328	-0.764
Mof_O 	O 	0.1304	0.6172	0.5316	-0.97
Mof_C 	C 	0.4401	0.9188	0.7335	0.049
Mof_C 	C 	0.4474	0.9022	0.6949	-0.06
Mof_H 	H 	0.4751	0.8889	0.6904	0.032
Mof_C 	C 	0.4141	0.9051	0.6628	0.109
Mof_C 	C 	0.366	0.9411	0.7081	0.134
Mof_C 	C 	0.3985	0.9372	0.7403	-0.024
Mof_H 	H 	0.3923	0.9469	0.7669	0.028
Mof_C 	C 	0.4164	0.8852	0.62	-0.335
Mof_H 	H 	0.3976	0.9005	0.6014	0.038
Mof_H 	H 	0.4581	0.9007	0.612	0.116
Mof_H 	H 	0.3951	0.8416	0.6188	0.093
Mof_C 	C 	0.3246	0.9653	0.7199	-0.336
Mof_H 	H 	0.3156	0.9588	0.7489	0.109
Mof_H 	H 	0.3444	0.0081	0.714	0.106
Mof_H 	H 	0.2876	0.9445	0.7043	0.095
Mof_C 	C 	0.3739	0.9243	0.66911	-0.112
Mof_C 	C 	0.3409	0.9307	0.6344	-0.017
Mof_C 	C 	0.3588	0.9856	0.6172	0.035
Mof_H 	H 	0.3922	0.0198	0.6285	0.016
Mof_C 	C 	0.3305	0.9929	0.5844	-0.227
Mof_C 	C 	0.2811	0.9427	0.569	0.133
Mof_H 	H 	0.2599	0.947	0.5469	0.012
Mof_C 	C 	0.262	0.8872	0.5846	-0.227
Mof_C 	C 	0.2921	0.8814	0.6174	0.034
Mof_H 	H 	0.2791	0.843	0.6285	0.019
Mof_C 	C 	0.3535	0.0526	0.5653	0.566
Mof_C 	C 	0.2127	0.8325	0.5656	0.572
Mof_Co	Co	0.167	0.704	0.5447	-0.594
Mof_C 	C 	0.4643	0.9308	0.6946	-0.098
Mof_H 	H 	0.5037	0.9383	0.6902	0.053
Mof_C 	C 	0.4306	0.9319	0.662	0.059
Mof_C 	C 	0.3488	0.9085	0.7074	0.012
Mof_C 	C 	0.3819	0.9062	0.7396	-0.128
Mof_H 	H 	0.3649	0.8961	0.766	0.053
Mof_C 	C 	0.4611	0.9446	0.6203	-0.326
Mof_H 	H 	0.4324	0.9183	0.6	0.142
Mof_H 	H 	0.4756	0.9863	0.6128	0.086
Mof_H 	H 	0.4948	0.9374	0.6215	0.069
Mof_C 	C 	0.2854	0.8954	0.7133	-0.227
Mof_H 	H 	0.2582	0.86	0.6976	0.086
Mof_H 	H 	0.275	0.8882	0.7421	0.08
Mof_H 	H 	0.2821	0.9296	0.704	0.064
Mof_H 	H 	0.3534	0.7477	0.4727	0.201
Mof_H 	H 	0.3632	0.7938	0.5082	0.166
Mof_H 	H 	0.3493	0.7279	0.5191	0.164
Mof_H 	H 	0.0773	0.511	0.472	0.463
Mof_H 	H 	0.048	0.5098	0.515	0.419
Mof_H 	H 	0.111	0.5123	0.513	0.441
Mof_Fe	Fe	0.5348	0.8308	0.5517	2.482
Mof_O 	O 	0.6846	0.5937	0.5745	-0.64
Mof_O 	O 	0.7384	0.6789	0.54142	-0.567
Mof_O 	O 	0.6604	0.82	0.54117	-0.565
Mof_O 	O 	0.5766	0.7921	0.57558	-0.663
Mof_O 	O 	0.4712	0.7496	0.5328	-0.764
Mof_O 	O 	0.4868	0.8696	0.5316	-0.97
Mof_C 	C 	0.4787	0.5599	0.7335	0.049
Mof_C 	C 	0.4548	0.5526	0.6949	-0.059
Mof_H 	H 	0.4138	0.5249	0.6904	0.032
Mof_C 	C 	0.491	0.5859	0.6628	0.109
Mof_C 	C 	0.5751	0.634	0.7081	0.134
Mof_C 	C 	0.5387	0.6015	0.7403	-0.024
Mof_H 	H 	0.5546	0.6077	0.7669	0.028
Mof_C 	C 	0.4688	0.5836	0.62	-0.335
Mof_H 	H 	0.5029	0.6024	0.6014	0.039
Mof_H 	H 	0.4426	0.5419	0.612	0.116
Mof_H 	H 	0.4465	0.6049	0.6188	0.093
Mof_C 	C 	0.6407	0.6754	0.7199	-0.336
Mof_H 	H 	0.6432	0.6844	0.7489	0.109
Mof_H 	H 	0.6637	0.6556	0.714	0.106
Mof_H 	H 	0.6569	0.7124	0.7043	0.095
Mof_C 	C 	0.5504	0.6261	0.66911	-0.112
Mof_C 	C 	0.5898	0.6591	0.6344	-0.017
Mof_C 	C 	0.6268	0.6412	0.6172	0.035
Mof_H 	H 	0.6276	0.6078	0.6285	0.016
Mof_C 	C 	0.6624	0.6695	0.5844	-0.226
Mof_C 	C 	0.6616	0.7189	0.569	0.133
Mof_H 	H 	0.6871	0.7401	0.5469	0.013
Mof_C 	C 	0.6252	0.738	0.5846	-0.227
Mof_C 	C 	0.5893	0.7079	0.6174	0.034
Mof_H 	H 	0.5639	0.7209	0.6285	0.019
Mof_C 	C 	0.6991	0.6465	0.5653	0.566
Mof_C 	C 	0.6198	0.7873	0.5656	0.572
Mof_Co	Co	0.537	0.833	0.5447	-0.594
Mof_C 	C 	0.4665	0.5357	0.6946	-0.098
Mof_H 	H 	0.4346	0.4963	0.6902	0.053
Mof_C 	C 	0.5013	0.5694	0.662	0.058
Mof_C 	C 	0.5597	0.6512	0.7074	0.012
Mof_C 	C 	0.5243	0.6181	0.7396	-0.128
Mof_H 	H 	0.5312	0.6351	0.766	0.053
Mof_C 	C 	0.4835	0.5389	0.6203	-0.325
Mof_H 	H 	0.4859	0.5676	0.6	0.142
Mof_H 	H 	0.5107	0.5244	0.6128	0.086
Mof_H 	H 	0.4426	0.5052	0.6215	0.069
Mof_C 	C 	0.61	0.7146	0.7133	-0.227
Mof_H 	H 	0.6018	0.7418	0.6976	0.087
Mof_H 	H 	0.6132	0.725	0.7421	0.08
Mof_H 	H 	0.6475	0.7179	0.704	0.064
Mof_H 	H 	0.3943	0.6466	0.4727	0.201
Mof_H 	H 	0.4306	0.6368	0.5082	0.166
Mof_H 	H 	0.3786	0.6507	0.5191	0.164
Mof_H 	H 	0.4337	0.9227	0.472	0.463
Mof_H 	H 	0.4618	0.952	0.515	0.419
Mof_H 	H 	0.4013	0.889	0.513	0.441
Mof_Fe	Fe	0.336	0.214	-0	2.162
Mof_O 	O 	0.245	0.1569	-0	-0.281
Mof_O 	O 	0.4212	0.2684	-0	-0.85
Mof_C 	C 	0.5442	0.2695	-0	0.911
Mof_C 	C 	0.5892	0.2481	-0	-1.131
Mof_C 	C 	0.5248	0.4079	-0	1.506
Mof_C 	C 	0.56	0.4744	-0	-2.595
Mof_Co	Co	0.339	0.217	-0	-0.402
Mof_Fe	Fe	0.786	0.122	-0	2.162
Mof_O 	O 	0.8431	0.0881	-0	-0.282
Mof_O 	O 	0.7316	0.1528	-0	-0.85
Mof_C 	C 	0.7305	0.2747	-0	0.911
Mof_C 	C 	0.7519	0.3411	-0	-1.131
Mof_C 	C 	0.5921	0.1169	-0	1.507
Mof_C 	C 	0.5256	0.0856	-0	-2.596
Mof_Co	Co	0.783	0.122	-0	-0.402
Mof_Fe	Fe	0.878	0.664	-0	2.162
Mof_O 	O 	0.9119	0.755	-0	-0.281
Mof_O 	O 	0.8472	0.5788	-0	-0.85
Mof_C 	C 	0.7253	0.4558	-0	0.911
Mof_C 	C 	0.6589	0.4108	-0	-1.13
Mof_C 	C 	0.8831	0.4752	-0	1.507
Mof_C 	C 	0.9144	0.44	-0	-2.597
Mof_Co	Co	0.878	0.661	-0	-0.402
Mof_Fe	Fe	0.664	0.786	-0	2.162
Mof_O 	O 	0.755	0.8431	-0	-0.281
Mof_O 	O 	0.5788	0.7316	-0	-0.85
Mof_C 	C 	0.4558	0.7305	-0	0.911
Mof_C 	C 	0.4108	0.7519	-0	-1.131
Mof_C 	C 	0.4752	0.5921	-0	1.506
Mof_C 	C 	0.44	0.5256	-0	-2.595
Mof_Co	Co	0.661	0.783	-0	-0.402
Mof_Fe	Fe	0.214	0.878	-0	2.162
Mof_O 	O 	0.1569	0.9119	-0	-0.282
Mof_O 	O 	0.2684	0.8472	-0	-0.85
Mof_C 	C 	0.2695	0.7253	-0	0.911
Mof_C 	C 	0.2481	0.6589	-0	-1.131
Mof_C 	C 	0.4079	0.8831	-0	1.507
Mof_C 	C 	0.4744	0.9144	-0	-2.596
Mof_Co	Co	0.217	0.878	-0	-0.402
Mof_Fe	Fe	0.122	0.336	-0	2.162
Mof_O 	O 	0.0881	0.245	-0	-0.281
Mof_O 	O 	0.1528	0.4212	-0	-0.85
Mof_C 	C 	0.2747	0.5442	-0	0.911
Mof_C 	C 	0.3411	0.5892	-0	-1.13
Mof_C 	C 	0.1169	0.5248	-0	1.507
Mof_C 	C 	0.0856	0.56	-0	-2.597
Mof_Co	Co	0.122	0.339	-0	-0.402
Mof_Fe	Fe	0.214	0.336	0.5	2.166
Mof_O 	O 	0.1569	0.245	0.5	-0.289
Mof_O 	O 	0.2684	0.4212	0.5	-0.86
Mof_C 	C 	0.2695	0.5442	0.5	0.912
Mof_C 	C 	0.2481	0.5892	0.5	-1.214
Mof_C 	C 	0.4079	0.5248	0.5	1.537
Mof_C 	C 	0.4744	0.56	0.5	-2.759
Mof_Co	Co	0.217	0.339	0.5	-0.411
Mof_Fe	Fe	0.122	0.786	0.5	2.166
Mof_O 	O 	0.0881	0.8431	0.5	-0.289
Mof_O 	O 	0.1528	0.7316	0.5	-0.86
Mof_C 	C 	0.2747	0.7305	0.5	0.912
Mof_C 	C 	0.3411	0.7519	0.5	-1.214
Mof_C 	C 	0.1169	0.5921	0.5	1.536
Mof_C 	C 	0.0856	0.5256	0.5	-2.759
Mof_Co	Co	0.122	0.783	0.5	-0.411
Mof_Fe	Fe	0.664	0.878	0.5	2.166
Mof_O 	O 	0.755	0.9119	0.5	-0.289
Mof_O 	O 	0.5788	0.8472	0.5	-0.86
Mof_C 	C 	0.4558	0.7253	0.5	0.912
Mof_C 	C 	0.4108	0.6589	0.5	-1.214
Mof_C 	C 	0.4752	0.8831	0.5	1.536
Mof_C 	C 	0.44	0.9144	0.5	-2.759
Mof_Co	Co	0.661	0.878	0.5	-0.411
Mof_Fe	Fe	0.786	0.664	0.5	2.166
Mof_O 	O 	0.8431	0.755	0.5	-0.289
Mof_O 	O 	0.7316	0.5788	0.5	-0.86
Mof_C 	C 	0.7305	0.4558	0.5	0.912
Mof_C 	C 	0.7519	0.4108	0.5	-1.214
Mof_C 	C 	0.5921	0.4752	0.5	1.537
Mof_C 	C 	0.5256	0.44	0.5	-2.759
Mof_Co	Co	0.783	0.661	0.5	-0.411
Mof_Fe	Fe	0.878	0.214	0.5	2.166
Mof_O 	O 	0.9119	0.1569	0.5	-0.289
Mof_O 	O 	0.8472	0.2684	0.5	-0.86
Mof_C 	C 	0.7253	0.2695	0.5	0.912
Mof_C 	C 	0.6589	0.2481	0.5	-1.214
Mof_C 	C 	0.8831	0.4079	0.5	1.536
Mof_C 	C 	0.9144	0.4744	0.5	-2.759
Mof_Co	Co	0.878	0.217	0.5	-0.411
Mof_Fe	Fe	0.336	0.122	0.5	2.166
Mof_O 	O 	0.245	0.0881	0.5	-0.289
Mof_O 	O 	0.4212	0.1528	0.5	-0.86
Mof_C 	C 	0.5442	0.2747	0.5	0.912
Mof_C 	C 	0.5892	0.3411	0.5	-1.214
Mof_C 	C 	0.5248	0.1169	0.5	1.536
Mof_C 	C 	0.56	0.0856	0.5	-2.759
Mof_Co	Co	0.339	0.122	0.5	-0.411
_end
