data_functionalizedCrystal
_audit_creation_method	'EQeq! by Chris Wilmer'
_symmetry_space_group_name_H-M	'P1'
_symmetry_Int_Tables_number	1
_symmetry_cell_setting	triclinic
loop_
_symmetry_equiv_pos_as_xyz
  x,y,z
_cell_length_a	36.549
_cell_length_b	38.148
_cell_length_c	38.3254
_cell_angle_alpha	119.847
_cell_angle_beta	118.478
_cell_angle_gamma	90.0001
loop_
_atom_site_label
_atom_site_type_symbol
_atom_site_fract_x
_atom_site_fract_y
_atom_site_fract_z
_atom_site_charge
Mof_Co	Co	0.92595	0.53066	0.3865	1.1
Mof_Co	Co	0.42383	0.04384	0.84766	1.108
Mof_Co	Co	0.92595	0.85584	0.3865	1.1
Mof_Co	Co	0.46055	0.85584	0.3865	1.1
Mof_Co	Co	0.42383	0.80382	0.84766	1.108
Mof_Co	Co	0.07405	0.46934	0.6135	1.1
Mof_Co	Co	0.07405	0.14416	0.6135	1.1
Mof_Co	Co	0.46055	0.53066	0.3865	1.1
Mof_Co	Co	0.53945	0.14416	0.6135	1.1
Mof_Co	Co	0.57617	0.19618	0.15234	1.108
Mof_Co	Co	0.53945	0.46934	0.6135	1.1
Mof_Co	Co	0.57617	0.95616	0.15234	1.108
Mof_Cu	Cu	0.95188	0.09974	0.19948	0.924
Mof_Cu	Cu	0.13852	0.33935	0.27704	0.894
Mof_Cu	Cu	0.04812	0.90026	0.80052	0.926
Mof_Cu	Cu	0.10325	0.25663	0.2065	0.906
Mof_Cu	Cu	0.7524	0.90026	0.80052	0.926
Mof_Cu	Cu	0.2476	0.09974	0.19948	0.925
Mof_Cu	Cu	0.66715	0.86854	0.73708	0.899
Mof_Cu	Cu	0.19964	0.20222	-0	0.898
Mof_Cu	Cu	0.14539	0.84367	-0	0.892
Mof_Cu	Cu	0.86148	0.06231	0.72296	0.894
Mof_Cu	Cu	0.89675	0.05013	0.7935	0.907
Mof_Cu	Cu	0.86148	0.66065	0.72296	0.894
Mof_Cu	Cu	0.13852	0.93769	0.27704	0.894
Mof_Cu	Cu	0.10325	0.94987	0.2065	0.905
Mof_Cu	Cu	0.80036	0.20222	-0	0.898
Mof_Cu	Cu	0.80036	0.79778	-0	0.897
Mof_Cu	Cu	0.85461	0.84367	-0	0.891
Mof_Cu	Cu	0.19964	0.79778	-0	0.897
Mof_Cu	Cu	0.33285	0.13146	0.26292	0.899
Mof_Cu	Cu	0.14539	0.15633	-0	0.893
Mof_Cu	Cu	0.89675	0.74337	0.7935	0.907
Mof_Cu	Cu	0.93007	0.13146	0.26292	0.899
Mof_Cu	Cu	0.06993	0.86854	0.73708	0.899
Mof_Cu	Cu	0.85461	0.15633	-0	0.892
Mof_B 	B 	0.9643	0.8747	0.4916	1.495
Mof_B 	B 	0.5598	0.9733	0.2014	0.292
Mof_B 	B 	0.0794	0.391	0.5038	-0.309
Mof_B 	B 	0.484	0.218	0.1292	0.284
Mof_B 	B 	0.6279	0.9349	0.097	0.083
Mof_B 	B 	0.9569	0.8036	0.312	-0.54
Mof_B 	B 	0.88351	0.49361	0.31262	-1.449
Mof_B 	B 	0.5116	0.2413	0.1916	0.322
Mof_B 	B 	0.5396	0.835	0.4544	-0.496
Mof_B 	B 	0.5756	0.609	0.4962	-0.309
Mof_B 	B 	0.8885	0.8249	0.3972	0.854
Mof_B 	B 	0.9206	0.8872	0.4962	-0.309
Mof_B 	B 	0.434	0.4665	0.3374	1.046
Mof_B 	B 	0.4082	0.7983	0.3318	1.099
Mof_B 	B 	0.8975	0.554	0.4652	0.454
Mof_B 	B 	0.0213	0.5187	0.6602	1.641
Mof_B 	B 	0.5204	0.9991	0.198	0.069
Mof_B 	B 	0.506	0.0099	0.859	1.027
Mof_B 	B 	0.3209	0.0422	0.85	-0.367
Mof_B 	B 	0.4323	0.446	0.5348	0.454
Mof_B 	B 	0.5918	0.4665	0.6682	1.101
Mof_B 	B 	0.513	0.9138	0.4422	0.982
Mof_B 	B 	0.4796	0.0009	0.802	0.075
Mof_B 	B 	0.0357	0.1253	0.5084	1.496
Mof_B 	B 	0.0648	0.547	0.7214	-0.233
Mof_B 	B 	0.5273	0.6169	0.4916	1.496
Mof_B 	B 	0.5309	0.8379	0.903	0.084
Mof_B 	B 	0.5405	0.2397	0.1578	-0.461
Mof_B 	B 	0.4884	0.0497	0.8084	0.323
Mof_B 	B 	0.42911	0.81901	0.31262	-1.457
Mof_B 	B 	0.4402	0.0267	0.7986	0.298
Mof_B 	B 	0.4727	0.3831	0.5084	1.496
Mof_B 	B 	0.4361	0.4202	0.5624	0.622
Mof_B 	B 	0.6566	0.547	0.7214	-0.233
Mof_B 	B 	0.3611	0.4813	0.3398	1.632
Mof_B 	B 	0.4361	0.1422	0.5624	0.622
Mof_B 	B 	0.0431	0.4916	0.688	-0.553
Mof_B 	B 	0.5917	0.9129	0.104	0.438
Mof_B 	B 	0.57089	0.18099	0.68738	-1.458
Mof_B 	B 	0.4691	0.9349	0.097	0.083
Mof_B 	B 	0.5677	0.9112	0.4652	0.454
Mof_B 	B 	0.484	0.9112	0.1292	0.277
Mof_B 	B 	0.5243	0.8731	0.4054	-1.203
Mof_B 	B 	0.9787	0.8585	0.3398	1.621
Mof_B 	B 	0.513	0.5284	0.4422	0.982
Mof_B 	B 	0.494	0.1509	0.141	1.023
Mof_B 	B 	0.8876	0.4444	0.278	0.634
Mof_B 	B 	0.4796	0.8011	0.802	0.073
Mof_B 	B 	0.4884	0.7587	0.8084	0.324
Mof_B 	B 	0.1025	0.0888	0.5348	0.454
Mof_B 	B 	0.9292	0.9138	0.4422	0.981
Mof_B 	B 	0.901	0.7888	0.275	0.522
Mof_B 	B 	0.57089	0.50639	0.68738	-1.458
Mof_B 	B 	0.3434	0.8256	0.2786	-0.234
Mof_B 	B 	0.5598	0.2281	0.2014	0.298
Mof_B 	B 	0.6173	0.9181	0.1578	-0.457
Mof_B 	B 	0.4727	0.1253	0.5084	1.496
Mof_B 	B 	0.936	0.4411	0.3178	-0.663
Mof_B 	B 	0.11649	0.50639	0.68738	-1.464
Mof_B 	B 	0.3818	0.4411	0.3178	-0.67
Mof_B 	B 	0.88351	0.81901	0.31262	-1.448
Mof_B 	B 	0.8811	0.8731	0.4054	-1.202
Mof_B 	B 	0.4709	0.1922	0.15	-0.366
Mof_B 	B 	0.9236	0.5335	0.3318	1.093
Mof_B 	B 	0.6791	0.1922	0.15	-0.366
Mof_B 	B 	0.1124	0.5556	0.722	0.639
Mof_B 	B 	0.626	0.5138	0.725	0.527
Mof_B 	B 	0.4913	0.4277	0.6028	0.855
Mof_B 	B 	0.6566	0.1744	0.7214	-0.233
Mof_B 	B 	0.374	0.7888	0.275	0.525
Mof_B 	B 	0.516	0.0888	0.8708	0.286
Mof_B 	B 	0.4595	0.0819	0.8422	-0.461
Mof_B 	B 	0.901	0.4862	0.275	0.522
Mof_B 	B 	0.6182	0.1233	0.6822	-0.671
Mof_B 	B 	0.064	0.1233	0.6822	-0.675
Mof_B 	B 	0.9544	0.9213	0.4984	-0.409
Mof_B 	B 	0.4604	0.165	0.5456	-0.495
Mof_B 	B 	0.0708	0.4716	0.5578	0.982
Mof_B 	B 	0.0794	0.1128	0.5038	-0.309
Mof_B 	B 	0.8876	0.8336	0.278	0.633
Mof_B 	B 	0.9034	0.4665	0.3374	1.039
Mof_B 	B 	0.11649	0.18099	0.68738	-1.462
Mof_B 	B 	0.5273	0.8747	0.4916	1.496
Mof_B 	B 	0.9206	0.609	0.4962	-0.309
Mof_B 	B 	0.1263	0.1422	0.5624	0.622
Mof_B 	B 	0.8885	0.5723	0.3972	0.854
Mof_B 	B 	0.1189	0.4677	0.5946	-1.203
Mof_B 	B 	0.9236	0.7983	0.3318	1.093
Mof_B 	B 	0.5291	0.8078	0.85	-0.367
Mof_B 	B 	0.3551	0.8036	0.312	-0.547
Mof_B 	B 	0.8811	0.5323	0.4054	-1.202
Mof_B 	B 	0.8737	0.5798	0.4376	0.621
Mof_B 	B 	0.6449	0.1964	0.688	-0.548
Mof_B 	B 	0.5291	0.0422	0.85	-0.367
Mof_B 	B 	0.6182	0.5589	0.6822	-0.671
Mof_B 	B 	0.3721	0.0651	0.903	0.083
Mof_B 	B 	0.516	0.782	0.8708	0.284
Mof_B 	B 	0.0708	0.0862	0.5578	0.982
Mof_B 	B 	0.5917	0.1911	0.104	0.439
Mof_B 	B 	0.099	0.2112	0.725	0.528
Mof_B 	B 	0.9643	0.6169	0.4916	1.495
Mof_B 	B 	0.3611	0.8585	0.3398	1.632
Mof_B 	B 	0.3224	0.0009	0.802	0.074
Mof_B 	B 	0.9148	0.835	0.4544	-0.496
Mof_B 	B 	0.3548	0.0888	0.8708	0.286
Mof_B 	B 	0.0431	0.1964	0.688	-0.552
Mof_B 	B 	0.6452	0.9112	0.1292	0.277
Mof_B 	B 	0.506	0.8491	0.859	1.025
Mof_B 	B 	0.0764	0.4665	0.6682	1.105
Mof_B 	B 	0.3904	0.4444	0.278	0.636
Mof_B 	B 	0.5087	0.8249	0.3972	0.854
Mof_B 	B 	0.544	0.9213	0.4984	-0.409
Mof_B 	B 	0.566	0.5335	0.6626	1.047
Mof_B 	B 	0.487	0.4716	0.5578	0.982
Mof_B 	B 	0.0213	0.1415	0.6602	1.639
Mof_B 	B 	0.936	0.8767	0.3178	-0.662
Mof_B 	B 	0.566	0.1291	0.6626	1.047
Mof_B 	B 	0.0852	0.165	0.5456	-0.495
Mof_B 	B 	0.0456	0.4229	0.5016	-0.409
Mof_B 	B 	0.064	0.5589	0.6822	-0.677
Mof_B 	B 	0.5639	0.5798	0.4376	0.621
Mof_B 	B 	0.4083	0.0871	0.896	0.441
Mof_B 	B 	0.6776	0.9991	0.198	0.069
Mof_B 	B 	0.5243	0.5323	0.4054	-1.203
Mof_B 	B 	0.3818	0.8767	0.3178	-0.67
Mof_B 	B 	0.456	0.4229	0.5016	-0.409
Mof_B 	B 	0.68	0.2413	0.1916	0.322
Mof_B 	B 	0.5116	0.9503	0.1916	0.327
Mof_B 	B 	0.6416	0.9733	0.2014	0.292
Mof_B 	B 	0.3548	0.782	0.8708	0.284
Mof_B 	B 	0.1115	0.4277	0.6028	0.855
Mof_B 	B 	0.5396	0.6194	0.4544	-0.496
Mof_B 	B 	0.9787	0.4813	0.3398	1.622
Mof_B 	B 	0.353	0.8491	0.859	1.025
Mof_B 	B 	0.4877	0.8089	0.896	0.442
Mof_B 	B 	0.434	0.8709	0.3374	1.045
Mof_B 	B 	0.6096	0.5556	0.722	0.637
Mof_B 	B 	0.3224	0.8011	0.802	0.073
Mof_B 	B 	0.6389	0.1415	0.6602	1.633
Mof_B 	B 	0.6279	0.1621	0.097	0.077
Mof_B 	B 	0.0852	0.3806	0.5456	-0.495
Mof_B 	B 	0.68	0.9503	0.1916	0.327
Mof_B 	B 	0.5309	0.0651	0.903	0.082
Mof_B 	B 	0.487	0.0862	0.5578	0.982
Mof_B 	B 	0.4877	0.0871	0.896	0.441
Mof_B 	B 	0.4595	0.7603	0.8422	-0.46
Mof_B 	B 	0.5677	0.554	0.4652	0.454
Mof_B 	B 	0.374	0.4862	0.275	0.525
Mof_B 	B 	0.0764	0.2017	0.6682	1.104
Mof_B 	B 	0.4244	0.1128	0.5038	-0.309
Mof_B 	B 	0.3827	0.7603	0.8422	-0.46
Mof_B 	B 	0.9292	0.5284	0.4422	0.982
Mof_B 	B 	0.6173	0.2397	0.1578	-0.461
Mof_B 	B 	0.647	0.1509	0.141	1.023
Mof_B 	B 	0.5123	0.1911	0.104	0.439
Mof_B 	B 	0.647	0.9901	0.141	1.013
Mof_B 	B 	0.5204	0.1989	0.198	0.073
Mof_B 	B 	0.32	0.7587	0.8084	0.324
Mof_B 	B 	0.6389	0.5187	0.6602	1.633
Mof_B 	B 	0.4709	0.9578	0.15	-0.363
Mof_B 	B 	0.42911	0.49361	0.31262	-1.457
Mof_B 	B 	0.9352	0.453	0.2786	-0.235
Mof_B 	B 	0.626	0.2112	0.725	0.527
Mof_B 	B 	0.1189	0.1269	0.5946	-1.203
Mof_B 	B 	0.1025	0.446	0.5348	0.454
Mof_B 	B 	0.3827	0.0819	0.8422	-0.46
Mof_B 	B 	0.494	0.9901	0.141	1.013
Mof_B 	B 	0.1115	0.1751	0.6028	0.855
Mof_B 	B 	0.5087	0.5723	0.3972	0.854
Mof_B 	B 	0.3904	0.8336	0.278	0.636
Mof_B 	B 	0.4082	0.5335	0.3318	1.099
Mof_B 	B 	0.0966	0.1291	0.6626	1.05
Mof_B 	B 	0.0456	0.0787	0.5016	-0.409
Mof_B 	B 	0.4323	0.0888	0.5348	0.454
Mof_B 	B 	0.4604	0.3806	0.5456	-0.495
Mof_B 	B 	0.6449	0.4916	0.688	-0.548
Mof_B 	B 	0.4083	0.8089	0.896	0.442
Mof_B 	B 	0.5918	0.2017	0.6682	1.101
Mof_B 	B 	0.1124	0.1664	0.722	0.638
Mof_B 	B 	0.9352	0.8256	0.2786	-0.235
Mof_B 	B 	0.4757	0.4677	0.5946	-1.203
Mof_B 	B 	0.544	0.5771	0.4984	-0.409
Mof_B 	B 	0.5639	0.8578	0.4376	0.621
Mof_B 	B 	0.0966	0.5335	0.6626	1.052
Mof_B 	B 	0.4402	0.7719	0.7986	0.297
Mof_B 	B 	0.8975	0.9112	0.4652	0.453
Mof_B 	B 	0.099	0.5138	0.725	0.529
Mof_B 	B 	0.3584	0.0267	0.7986	0.298
Mof_B 	B 	0.4691	0.1621	0.097	0.077
Mof_B 	B 	0.5756	0.8872	0.4962	-0.309
Mof_B 	B 	0.0357	0.3831	0.5084	1.496
Mof_B 	B 	0.6776	0.1989	0.198	0.073
Mof_B 	B 	0.6416	0.2281	0.2014	0.298
Mof_B 	B 	0.4244	0.391	0.5038	-0.309
Mof_B 	B 	0.9148	0.6194	0.4544	-0.496
Mof_B 	B 	0.0648	0.1744	0.7214	-0.233
Mof_B 	B 	0.6791	0.9578	0.15	-0.363
Mof_B 	B 	0.4757	0.1269	0.5946	-1.203
Mof_B 	B 	0.353	0.0099	0.859	1.027
Mof_B 	B 	0.1263	0.4202	0.5624	0.621
Mof_B 	B 	0.8737	0.8578	0.4376	0.621
Mof_B 	B 	0.3434	0.453	0.2786	-0.234
Mof_B 	B 	0.9569	0.5084	0.312	-0.541
Mof_B 	B 	0.9544	0.5771	0.4984	-0.409
Mof_B 	B 	0.32	0.0497	0.8084	0.323
Mof_B 	B 	0.6452	0.218	0.1292	0.284
Mof_B 	B 	0.456	0.0787	0.5016	-0.409
Mof_B 	B 	0.4913	0.1751	0.6028	0.855
Mof_B 	B 	0.5123	0.9129	0.104	0.438
Mof_B 	B 	0.3584	0.7719	0.7986	0.297
Mof_B 	B 	0.3721	0.8379	0.903	0.084
Mof_B 	B 	0.3209	0.8078	0.85	-0.367
Mof_B 	B 	0.6096	0.1664	0.722	0.637
Mof_B 	B 	0.5405	0.9181	0.1578	-0.457
Mof_B 	B 	0.3551	0.5084	0.312	-0.547
Mof_B 	B 	0.9034	0.8709	0.3374	1.038
Mof_H 	H 	0.4327	0.0368	0.914	0.13
Mof_H 	H 	0.0404	0.1866	0.58	0.12
Mof_H 	H 	0.8166	0.1655	0.1876	0.061
Mof_H 	H 	0.0062	0.125	0.4792	-0.469
Mof_H 	H 	0.492	0.812	0.9284	-0.197
Mof_H 	H 	0.0208	0.0803	0.5932	0.136
Mof_H 	H 	0.4603	0.8932	0.3442	-0.383
Mof_H 	H 	0.8933	0.9663	0.6284	0.059
Mof_H 	H 	0.6528	0.2346	0.115	-0.138
Mof_H 	H 	0.0062	0.3542	0.4792	-0.47
Mof_H 	H 	0.5624	0.86	0.9388	-0.07
Mof_H 	H 	0.4048	0.4594	0.524	-0.185
Mof_H 	H 	0.4297	0.9681	0.8096	0.117
Mof_H 	H 	0.2295	0.3264	0.1222	0.049
Mof_H 	H 	0.6396	0.244	0.7584	-0.204
Mof_H 	H 	0.3174	0.8967	0.089	0.063
Mof_H 	H 	0.6201	0.0319	0.1904	0.115
Mof_H 	H 	0.0661	0.0589	0.5606	-0.361
Mof_H 	H 	0.9106	0.6502	0.459	0.082
Mof_H 	H 	0.8745	0.1487	0.1138	0.06
Mof_H 	H 	0.8839	0.451	0.3442	-0.381
Mof_H 	H 	0.2905	0.0524	0.782	-0.143
Mof_H 	H 	0.5085	0.2704	0.218	-0.144
Mof_H 	H 	0.7716	0.8967	0.089	0.063
Mof_H 	H 	0.2284	0.8077	0.911	0.071
Mof_H 	H 	0.4376	0.9212	0.0612	-0.085
Mof_H 	H 	0.5636	0.8836	0.0716	-0.207
Mof_H 	H 	0.3454	0.8795	0.866	-0.334
Mof_H 	H 	0.508	0.188	0.0716	-0.206
Mof_H 	H 	0.1192	0.4594	0.524	-0.185
Mof_H 	H 	0.4327	0.8772	0.914	0.13
Mof_H 	H 	0.3799	0.8415	0.8096	0.117
Mof_H 	H 	0.9106	0.8088	0.459	0.082
Mof_H 	H 	0.3939	0.732	0.8386	0.045
Mof_H 	H 	0.5396	0.3934	0.58	0.12
Mof_H 	H 	0.5703	0.1585	0.1904	0.116
Mof_H 	H 	0.9792	0.9197	0.4068	0.134
Mof_H 	H 	0.5895	0.2528	0.2374	-0.168
Mof_H 	H 	0.473	0.125	0.4792	-0.47
Mof_H 	H 	0.5241	0.0287	0.2298	-0.074
Mof_H 	H 	0.9194	0.5639	0.3352	-0.394
Mof_H 	H 	0.6061	0.8934	0.1614	0.04
Mof_H 	H 	0.793	0.1461	0.7708	0.053
Mof_H 	H 	0.3521	0.7472	0.7626	-0.167
Mof_H 	H 	0.0222	0.8539	0.2292	0.055
Mof_H 	H 	0.1073	0.6736	0.8778	0.055
Mof_H 	H 	0.4673	0.9033	0.4662	0.148
Mof_H 	H 	0.629	0.8345	0.8124	0.063
Mof_H 	H 	0.8584	0.4157	0.2462	-0.233
Mof_H 	H 	0.1188	0.244	0.7584	-0.204
Mof_H 	H 	0.6826	0.8077	0.911	0.071
Mof_H 	H 	0.5484	0.6502	0.459	0.082
Mof_H 	H 	0.9339	0.9411	0.4394	-0.362
Mof_H 	H 	0.5476	0.1944	0.6974	0.311
Mof_H 	H 	0.3472	0.7654	0.885	-0.131
Mof_H 	H 	0.3283	0.7809	0.304	0.093
Mof_H 	H 	0.4813	0.8772	0.914	0.13
Mof_H 	H 	0.0605	0.59	0.6874	0.142
Mof_H 	H 	0.9778	0.6247	0.7708	0.049
Mof_H 	H 	0.0208	0.5129	0.5932	0.136
Mof_H 	H 	0.0124	0.4786	0.351	-0.502
Mof_H 	H 	0.7351	0.9663	0.6284	0.059
Mof_H 	H 	0.6396	0.5144	0.7584	-0.204
Mof_H 	H 	0.9739	0.8624	0.1156	0.058
Mof_H 	H 	0.1345	0.2075	0.6356	-0.326
Mof_H 	H 	0.7351	0.6621	0.6284	0.06
Mof_H 	H 	0.2943	0.7989	0.7702	-0.076
Mof_H 	H 	0.8808	0.5406	0.476	-0.185
Mof_H 	H 	0.0605	0.0974	0.6874	0.141
Mof_H 	H 	0.1834	0.8345	0.8124	0.063
Mof_H 	H 	0.6625	0.886	0.635	0.058
Mof_H 	H 	0.9938	0.875	0.5208	-0.47
Mof_H 	H 	0.8166	0.0221	0.1876	0.067
Mof_H 	H 	0.5484	0.8088	0.459	0.082
Mof_H 	H 	0.3521	0.0154	0.7626	-0.168
Mof_H 	H 	0.1073	0.2042	0.8778	0.055
Mof_H 	H 	0.1067	0.0337	0.3716	0.061
Mof_H 	H 	0.7057	0.2011	0.2298	-0.076
Mof_H 	H 	0.3604	0.4856	0.2416	-0.208
Mof_H 	H 	0.5206	0.9865	0.866	-0.335
Mof_H 	H 	0.5236	0.8729	0.3758	0.239
Mof_H 	H 	0.4376	0.14	0.0612	-0.082
Mof_H 	H 	0.6269	0.0974	0.6874	0.14
Mof_H 	H 	0.5893	0.5829	0.43	-0.233
Mof_H 	H 	0.8502	0.497	0.3026	0.307
Mof_H 	H 	0.5378	0.1196	0.885	-0.131
Mof_H 	H 	0.5187	0.9632	0.086	0.122
Mof_H 	H 	0.9395	0.9026	0.3126	0.136
Mof_H 	H 	0.5984	0.1571	0.6012	0.158
Mof_H 	H 	0.0404	0.3934	0.58	0.12
Mof_H 	H 	0.5011	0.4281	0.6356	-0.326
Mof_H 	H 	0.0403	0.2133	0.253	0.063
Mof_H 	H 	0.1498	0.1944	0.6974	0.313
Mof_H 	H 	0.4673	0.5629	0.4662	0.148
Mof_H 	H 	0.0243	0.2191	0.696	0.097
Mof_H 	H 	0.4794	0.0135	0.134	-0.334
Mof_H 	H 	0.492	0.1164	0.9284	-0.197
Mof_H 	H 	0.8745	0.9651	0.1138	0.063
Mof_H 	H 	0.9757	0.5231	0.304	0.09
Mof_H 	H 	0.3604	0.756	0.2416	-0.208
Mof_H 	H 	0.8808	0.9354	0.476	-0.185
Mof_H 	H 	0.5055	0.4983	0.4394	-0.362
Mof_H 	H 	0.4794	0.1205	0.134	-0.338
Mof_H 	H 	0.0229	0.4205	0.4674	0.055
Mof_H 	H 	0.5555	0.5795	0.5326	0.055
Mof_H 	H 	0.5842	0.4361	0.6648	-0.394
Mof_H 	H 	0.9339	0.4983	0.4394	-0.362
Mof_H 	H 	0.9739	0.2532	0.1156	0.058
Mof_H 	H 	0.371	0.1655	0.1876	0.061
Mof_H 	H 	0.5011	0.2075	0.6356	-0.326
Mof_H 	H 	0.9771	0.5795	0.5326	0.054
Mof_H 	H 	0.5842	0.2287	0.6648	-0.394
Mof_H 	H 	0.4516	0.3498	0.541	0.083
Mof_H 	H 	0.9597	0.9603	0.747	0.063
Mof_H 	H 	0.5724	0.5129	0.5932	0.135
Mof_H 	H 	0.527	0.875	0.5208	-0.47
Mof_H 	H 	0.2393	0.1487	0.1138	0.06
Mof_H 	H 	0.9778	0.1461	0.7708	0.05
Mof_H 	H 	0.5396	0.1866	0.58	0.12
Mof_H 	H 	0.7057	0.0287	0.2298	-0.074
Mof_H 	H 	0.8655	0.7925	0.3644	-0.328
Mof_H 	H 	0.4604	0.8134	0.42	0.119
Mof_H 	H 	0.4604	0.6066	0.42	0.119
Mof_H 	H 	0.4048	0.0646	0.524	-0.185
Mof_H 	H 	0.4105	0.7472	0.7626	-0.167
Mof_H 	H 	0.6528	0.8804	0.115	-0.137
Mof_H 	H 	0.4516	0.1912	0.541	0.083
Mof_H 	H 	0.4989	0.7925	0.3644	-0.328
Mof_H 	H 	0.5952	0.5406	0.476	-0.185
Mof_H 	H 	0.1192	0.0646	0.524	-0.185
Mof_H 	H 	0.4764	0.4971	0.6242	0.24
Mof_H 	H 	0.1161	0.1068	0.6558	-0.383
Mof_H 	H 	0.4107	0.1529	0.57	-0.232
Mof_H 	H 	0.3375	0.114	0.365	0.058
Mof_H 	H 	0.8927	0.7958	0.1222	0.05
Mof_H 	H 	0.8839	0.8932	0.3442	-0.381
Mof_H 	H 	0.5895	0.9846	0.2374	-0.167
Mof_H 	H 	0.5893	0.8471	0.43	-0.233
Mof_H 	H 	0.5624	0.0788	0.9388	-0.07
Mof_H 	H 	0.0261	0.7468	0.8844	0.062
Mof_H 	H 	0.6122	0.1695	0.7538	-0.231
Mof_H 	H 	0.7873	0.9603	0.747	0.064
Mof_H 	H 	0.3878	0.8305	0.2462	-0.233
Mof_H 	H 	0.4622	0.8804	0.115	-0.137
Mof_H 	H 	0.2127	0.0397	0.253	0.063
Mof_H 	H 	0.6122	0.5843	0.7538	-0.231
Mof_H 	H 	0.0222	0.3753	0.2292	0.055
Mof_H 	H 	0.1067	0.3379	0.3716	0.06
Mof_H 	H 	0.473	0.3542	0.4792	-0.47
Mof_H 	H 	0.9876	0.1276	0.649	-0.508
Mof_H 	H 	0.4759	0.7989	0.7702	-0.076
Mof_H 	H 	0.5236	0.5029	0.3758	0.239
Mof_H 	H 	0.9725	0.886	0.635	0.057
Mof_H 	H 	0.7705	0.6736	0.8778	0.056
Mof_H 	H 	0.793	0.6247	0.7708	0.053
Mof_H 	H 	0.4915	0.0524	0.782	-0.143
Mof_H 	H 	0.2905	0.7296	0.782	-0.143
Mof_H 	H 	0.9596	0.8134	0.42	0.119
Mof_H 	H 	0.0894	0.1912	0.541	0.083
Mof_H 	H 	0.4364	0.1164	0.9284	-0.197
Mof_H 	H 	0.9792	0.4871	0.4068	0.134
Mof_H 	H 	0.629	0.9779	0.8124	0.061
Mof_H 	H 	0.4447	0.1066	0.8386	0.045
Mof_H 	H 	0.4445	0.0469	0.4674	0.055
Mof_H 	H 	0.1478	0.1271	0.6242	0.24
Mof_H 	H 	0.6717	0.4769	0.696	0.095
Mof_H 	H 	0.0011	0.4371	0.5338	0.149
Mof_H 	H 	0.0261	0.1376	0.8844	0.062
Mof_H 	H 	0.6717	0.2191	0.696	0.095
Mof_H 	H 	0.9938	0.6458	0.5208	-0.47
Mof_H 	H 	0.4445	0.4205	0.4674	0.055
Mof_H 	H 	0.5636	0.188	0.0716	-0.206
Mof_H 	H 	0.7095	0.2704	0.218	-0.144
Mof_H 	H 	0.1478	0.4971	0.6242	0.24
Mof_H 	H 	0.1255	0.0349	0.8862	0.066
Mof_H 	H 	0.9972	0.5559	0.3988	0.156
Mof_H 	H 	0.2649	0.3379	0.3716	0.06
Mof_H 	H 	0.1416	0.5843	0.7538	-0.231
Mof_H 	H 	0.0028	0.1571	0.6012	0.158
Mof_H 	H 	0.3731	0.9026	0.3126	0.139
Mof_H 	H 	0.4813	0.0368	0.914	0.13
Mof_H 	H 	0.0894	0.3498	0.541	0.083
Mof_H 	H 	0.1416	0.1695	0.7538	-0.231
Mof_H 	H 	0.1188	0.5144	0.7584	-0.204
Mof_H 	H 	0.8655	0.5719	0.3644	-0.328
Mof_H 	H 	0.8584	0.8305	0.2462	-0.233
Mof_H 	H 	0.9989	0.9033	0.4662	0.148
Mof_H 	H 	0.4764	0.1271	0.6242	0.24
Mof_H 	H 	0.0806	0.2287	0.6648	-0.395
Mof_H 	H 	0.5206	0.8795	0.866	-0.335
Mof_H 	H 	0.6269	0.59	0.6874	0.14
Mof_H 	H 	0.3454	0.9865	0.866	-0.335
Mof_H 	H 	0.1593	0.1529	0.57	-0.232
Mof_H 	H 	0.0806	0.4361	0.6648	-0.395
Mof_H 	H 	0.6625	0.749	0.635	0.058
Mof_H 	H 	0.5673	0.9632	0.086	0.122
Mof_H 	H 	0.5397	0.549	0.6558	-0.382
Mof_H 	H 	0.207	0.8539	0.2292	0.05
Mof_H 	H 	0.3472	0.1196	0.885	-0.131
Mof_H 	H 	0.6614	0.1276	0.649	-0.506
Mof_H 	H 	0.7095	0.9476	0.218	-0.146
Mof_H 	H 	0.6479	0.2528	0.2374	-0.168
Mof_H 	H 	0.4276	0.9197	0.4068	0.135
Mof_H 	H 	0.7607	0.0349	0.8862	0.066
Mof_H 	H 	0.4989	0.5719	0.3644	-0.328
Mof_H 	H 	0.508	0.8836	0.0716	-0.207
Mof_H 	H 	0.5673	0.1228	0.086	0.122
Mof_H 	H 	0.6826	0.1033	0.911	0.07
Mof_H 	H 	0.0275	0.251	0.365	0.059
Mof_H 	H 	0.0243	0.4769	0.696	0.097
Mof_H 	H 	0.4364	0.812	0.9284	-0.197
Mof_H 	H 	0.2393	0.9651	0.1138	0.063
Mof_H 	H 	0.3731	0.41	0.3126	0.139
Mof_H 	H 	0.4107	0.4171	0.57	-0.232
Mof_H 	H 	0.4524	0.497	0.3026	0.309
Mof_H 	H 	0.5241	0.2011	0.2298	-0.076
Mof_H 	H 	0.5085	0.9476	0.218	-0.146
Mof_H 	H 	0.4622	0.2346	0.115	-0.138
Mof_H 	H 	0.4945	0.0589	0.5606	-0.362
Mof_H 	H 	0.9597	0.7867	0.747	0.063
Mof_H 	H 	0.5984	0.4441	0.6012	0.158
Mof_H 	H 	0.5476	0.503	0.6974	0.311
Mof_H 	H 	0.9771	0.9531	0.5326	0.054
Mof_H 	H 	0.4915	0.7296	0.782	-0.143
Mof_H 	H 	0.3764	0.86	0.9388	-0.07
Mof_H 	H 	0.5055	0.9411	0.4394	-0.362
Mof_H 	H 	0.6236	0.9212	0.0612	-0.085
Mof_H 	H 	0.1417	0.8624	0.1156	0.057
Mof_H 	H 	0.527	0.6458	0.5208	-0.47
Mof_H 	H 	0.0011	0.0967	0.5338	0.149
Mof_H 	H 	0.5327	0.0967	0.5338	0.149
Mof_H 	H 	0.6546	0.1205	0.134	-0.338
Mof_H 	H 	0.8502	0.8056	0.3026	0.306
Mof_H 	H 	0.0124	0.8724	0.351	-0.502
Mof_H 	H 	0.1498	0.503	0.6974	0.313
Mof_H 	H 	0.8812	0.4856	0.2416	-0.207
Mof_H 	H 	0.9725	0.749	0.635	0.057
Mof_H 	H 	0.9876	0.5214	0.649	-0.509
Mof_H 	H 	0.0661	0.5017	0.5606	-0.362
Mof_H 	H 	0.371	0.0221	0.1876	0.066
Mof_H 	H 	0.8927	0.3264	0.1222	0.05
Mof_H 	H 	0.2649	0.0337	0.3716	0.061
Mof_H 	H 	0.0275	0.114	0.365	0.059
Mof_H 	H 	0.8407	0.5829	0.43	-0.233
Mof_H 	H 	0.6236	0.14	0.0612	-0.082
Mof_H 	H 	0.207	0.3753	0.2292	0.05
Mof_H 	H 	0.4759	0.9713	0.7702	-0.077
Mof_H 	H 	0.8522	0.5029	0.3758	0.239
Mof_H 	H 	0.6201	0.1585	0.1904	0.116
Mof_H 	H 	0.4016	0.5559	0.3988	0.157
Mof_H 	H 	0.1255	0.8513	0.8862	0.067
Mof_H 	H 	0.5378	0.7654	0.885	-0.131
Mof_H 	H 	0.3939	0.1066	0.8386	0.045
Mof_H 	H 	0.6546	0.0135	0.134	-0.334
Mof_H 	H 	0.4105	0.0154	0.7626	-0.168
Mof_H 	H 	0.1834	0.9779	0.8124	0.062
Mof_H 	H 	0.3386	0.8724	0.351	-0.506
Mof_H 	H 	0.1345	0.4281	0.6356	-0.326
Mof_H 	H 	0.9194	0.7713	0.3352	-0.394
Mof_H 	H 	0.8583	0.7468	0.8844	0.063
Mof_H 	H 	0.2943	0.9713	0.7702	-0.077
Mof_H 	H 	0.5187	0.1228	0.086	0.122
Mof_H 	H 	0.3799	0.9681	0.8096	0.117
Mof_H 	H 	0.9989	0.5629	0.4662	0.148
Mof_H 	H 	0.9395	0.41	0.3126	0.137
Mof_H 	H 	0.5952	0.9354	0.476	-0.185
Mof_H 	H 	0.8583	0.1376	0.8844	0.063
Mof_H 	H 	0.6614	0.5214	0.649	-0.506
Mof_H 	H 	0.5555	0.9531	0.5326	0.055
Mof_H 	H 	0.2284	0.1033	0.911	0.07
Mof_H 	H 	0.4603	0.451	0.3442	-0.383
Mof_H 	H 	0.0403	0.0397	0.253	0.064
Mof_H 	H 	0.3283	0.5231	0.304	0.093
Mof_H 	H 	0.4524	0.8056	0.3026	0.309
Mof_H 	H 	0.5703	0.0319	0.1904	0.115
Mof_H 	H 	0.3174	0.1923	0.089	0.061
Mof_H 	H 	0.9757	0.7809	0.304	0.09
Mof_H 	H 	0.3764	0.0788	0.9388	-0.07
Mof_H 	H 	0.4297	0.8415	0.8096	0.117
Mof_H 	H 	0.8522	0.8729	0.3758	0.239
Mof_H 	H 	0.9972	0.8429	0.3988	0.156
Mof_H 	H 	0.6479	0.9846	0.2374	-0.167
Mof_H 	H 	0.3878	0.4157	0.2462	-0.233
Mof_H 	H 	0.8933	0.6621	0.6284	0.06
Mof_H 	H 	0.2127	0.2133	0.253	0.062
Mof_H 	H 	0.2295	0.7958	0.1222	0.049
Mof_H 	H 	0.0028	0.4441	0.6012	0.158
Mof_H 	H 	0.0229	0.0469	0.4674	0.055
Mof_H 	H 	0.4945	0.5017	0.5606	-0.362
Mof_H 	H 	0.4276	0.4871	0.4068	0.135
Mof_H 	H 	0.1593	0.4171	0.57	-0.232
Mof_H 	H 	0.4158	0.5639	0.3352	-0.396
Mof_H 	H 	0.8407	0.8471	0.43	-0.233
Mof_H 	H 	0.5553	0.268	0.1614	0.041
Mof_H 	H 	0.5397	0.1068	0.6558	-0.382
Mof_H 	H 	0.7705	0.2042	0.8778	0.056
Mof_H 	H 	0.4447	0.732	0.8386	0.045
Mof_H 	H 	0.7607	0.8513	0.8862	0.067
Mof_H 	H 	0.7716	0.1923	0.089	0.061
Mof_H 	H 	0.7873	0.7867	0.747	0.064
Mof_H 	H 	0.8812	0.756	0.2416	-0.207
Mof_H 	H 	0.1161	0.549	0.6558	-0.384
Mof_H 	H 	0.9596	0.6066	0.42	0.119
Mof_H 	H 	0.6061	0.268	0.1614	0.041
Mof_H 	H 	0.5327	0.4371	0.5338	0.148
Mof_H 	H 	0.3375	0.251	0.365	0.058
Mof_H 	H 	0.5724	0.0803	0.5932	0.135
Mof_H 	H 	0.3386	0.4786	0.351	-0.506
Mof_H 	H 	0.1417	0.2532	0.1156	0.057
Mof_H 	H 	0.4158	0.7713	0.3352	-0.396
Mof_H 	H 	0.4016	0.8429	0.3988	0.157
Mof_H 	H 	0.5553	0.8934	0.1614	0.04
Mof_C 	C 	0.1747	0.8276	0.8984	-0.034
Mof_C 	C 	0.00612	0.31532	0.17784	-0.063
Mof_C 	C 	0.50842	0.43282	0.54244	-0.795
Mof_C 	C 	0.4153	0.8865	0.3742	-0.729
Mof_C 	C 	0.8253	0.1724	0.1016	-0.046
Mof_C 	C 	0.0508	0.3084	0.2004	0.371
Mof_C 	C 	0.2118	0.0401	0.8614	0.062
Mof_C 	C 	0.2403	0.1766	0.0648	0.28
Mof_C 	C 	0.26783	0.04413	0.35486	-0.052
Mof_C 	C 	0.6848	0.076	0.8932	-0.076
Mof_C 	C 	0.6496	0.8213	0.8614	0.064
Mof_C 	C 	0.081	0.1016	0.4602	0.002
Mof_C 	C 	0.6003	0.4733	0.632	-0.837
Mof_C 	C 	0.2763	0.1724	0.1016	-0.045
Mof_C 	C 	0.2403	0.8882	0.0648	0.278
Mof_C 	C 	0.9589	0.8865	0.3742	-0.727
Mof_C 	C 	0.2335	0.2762	0.308	-0.048
Mof_C 	C 	0.99825	0.84835	0.1997	-0.04
Mof_C 	C 	0.9284	0.8284	0.113	-0.073
Mof_C 	C 	0.732	0.0357	0.8782	-0.01
Mof_C 	C 	0.92068	0.81338	0.13616	-0.034
Mof_C 	C 	0.04628	0.23598	0.28336	-0.014
Mof_C 	C 	0.5128	0.4075	0.5692	-0.707
Mof_C 	C 	0.5847	0.1135	0.6258	-0.729
Mof_C 	C 	0.00175	0.64865	0.8003	-0.023
Mof_C 	C 	0.1733	0.2457	0.068	0.315
Mof_C 	C 	0.1922	0.2858	0.2852	0.304
Mof_C 	C 	0.9255	0.9682	0.692	-0.049
Mof_C 	C 	0.4872	0.5925	0.4308	-0.707
Mof_C 	C 	0.17172	0.86252	0.17784	-0.071
Mof_C 	C 	0.653	0.9104	0.576	-0.063
Mof_C 	C 	0.7223	0.9252	0.6954	-0.046
Mof_C 	C 	0.4816	0.8468	0.8864	-0.693
Mof_C 	C 	0.20145	0.35135	0.1997	-0.028
Mof_C 	C 	0.3005	0.8198	0.2396	-0.03
Mof_C 	C 	0.9621	0.7417	0.6498	-0.047
Mof_C 	C 	0.9731	0.7702	0.6954	-0.047
Mof_C 	C 	0.2452	0.0393	0.8516	-0.08
Mof_C 	C 	0.2762	0.8068	0.8488	0.021
Mof_C 	C 	0.3091	0.0752	0.3752	0.029
Mof_C 	C 	0.9492	0.6916	0.7996	0.374
Mof_C 	C 	0.2452	0.8123	0.8516	-0.08
Mof_C 	C 	0.2084	0.076	0.8932	-0.077
Mof_C 	C 	0.0745	0.0318	0.308	-0.045
Mof_C 	C 	0.0716	0.1716	0.887	-0.069
Mof_C 	C 	0.4153	0.4877	0.3742	-0.729
Mof_C 	C 	0.0411	0.1135	0.6258	-0.73
Mof_C 	C 	0.6909	0.9248	0.6248	0.028
Mof_C 	C 	0.96598	0.89038	0.45756	-0.795
Mof_C 	C 	0.8847	0.1388	0.1834	0.336
Mof_C 	C 	0.0411	0.5123	0.6258	-0.731
Mof_C 	C 	0.50842	0.10962	0.54244	-0.795
Mof_C 	C 	0.3036	0.0002	0.1556	-0.039
Mof_C 	C 	0.093	0.9994	0.2852	0.303
Mof_C 	C 	0.7665	0.7238	0.692	-0.047
Mof_C 	C 	0.5952	0.1532	0.1136	-0.692
Mof_C 	C 	0.2761	0.1826	0.2718	0.347
Mof_C 	C 	0.7882	0.9599	0.1386	0.064
Mof_C 	C 	0.4274	0.1932	0.1512	0.015
Mof_C 	C 	0.7597	0.1118	0.9352	0.279
Mof_C 	C 	0.9284	0.2846	0.113	-0.073
Mof_C 	C 	0.7239	0.8174	0.7282	0.346
Mof_C 	C 	0.95372	0.76402	0.71664	-0.014
Mof_C 	C 	0.5726	0.042	0.8488	0.021
Mof_C 	C 	0.9391	0.8198	0.2396	-0.029
Mof_C 	C 	0.0661	0.0752	0.3752	0.029
Mof_C 	C 	0.9474	0.818	0.2124	-0.047
Mof_C 	C 	0.6208	0.8984	0.5398	0.001
Mof_C 	C 	0.8267	0.7543	0.932	0.312
Mof_C 	C 	0.1153	0.8612	0.8166	0.335
Mof_C 	C 	0.8267	0.1777	0.932	0.312
Mof_C 	C 	0.093	0.2858	0.2852	0.304
Mof_C 	C 	0.1733	0.8223	0.068	0.315
Mof_C 	C 	0.3091	0.3	0.3752	0.028
Mof_C 	C 	0.9683	0.8413	0.368	-0.834
Mof_C 	C 	0.7223	0.7702	0.6954	-0.045
Mof_C 	C 	0.9957	0.1826	0.2718	0.346
Mof_C 	C 	0.6539	0.8333	0.836	-0.071
Mof_C 	C 	0.9683	0.5267	0.368	-0.835
Mof_C 	C 	0.6848	0.8172	0.8932	-0.078
Mof_C 	C 	0.2118	0.8213	0.8614	0.064
Mof_C 	C 	0.6252	0.0002	0.1738	-0.62
Mof_C 	C 	0.7238	0.958	0.1512	0.015
Mof_C 	C 	0.3936	0.9607	0.1484	-0.084
Mof_C 	C 	0.4048	0.0396	0.8864	-0.692
Mof_C 	C 	0.0317	0.4733	0.632	-0.838
Mof_C 	C 	0.265	0.818	0.2124	-0.044
Mof_C 	C 	0.49158	0.56718	0.45756	-0.795
Mof_C 	C 	0.1846	0.2846	0.113	-0.076
Mof_C 	C 	0.0508	0.892	0.2004	0.371
Mof_C 	C 	0.96959	0.27969	0.13218	0.002
Mof_C 	C 	0.9589	0.4877	0.3742	-0.727
Mof_C 	C 	0.03041	0.72031	0.86782	0.009
Mof_C 	C 	0.7665	0.9682	0.692	-0.049
Mof_C 	C 	0.21548	0.32278	0.13616	-0.029
Mof_C 	C 	0.7013	0.8612	0.8166	0.335
Mof_C 	C 	0.23708	0.23598	0.28336	-0.014
Mof_C 	C 	0.0564	0.4075	0.5692	-0.707
Mof_C 	C 	0.99388	0.13748	0.82216	-0.07
Mof_C 	C 	0.6964	0.8446	0.8444	-0.043
Mof_C 	C 	0.4514	0.8264	0.8262	-0.628
Mof_C 	C 	0.91297	0.95587	0.64514	-0.051
Mof_C 	C 	0.9436	0.8383	0.4308	-0.707
Mof_C 	C 	0.9731	0.9252	0.6954	-0.048
Mof_C 	C 	0.6877	0.7417	0.6498	-0.048
Mof_C 	C 	0.923	0.9104	0.576	-0.063
Mof_C 	C 	0.5952	0.9604	0.1136	-0.693
Mof_C 	C 	0.6064	0.8123	0.8516	-0.08
Mof_C 	C 	0.9566	0.3557	0.1814	0.015
Mof_C 	C 	0.6995	0.5802	0.7604	-0.027
Mof_C 	C 	0.919	0.8984	0.5398	0.001
Mof_C 	C 	0.03402	0.43282	0.54244	-0.795
Mof_C 	C 	0.077	0.3344	0.424	-0.063
Mof_C 	C 	0.21548	0.81338	0.13616	-0.029
Mof_C 	C 	0.8245	0.1766	0.0648	0.28
Mof_C 	C 	0.8078	0.0006	0.7148	0.305
Mof_C 	C 	0.0379	0.0919	0.3502	-0.048
Mof_C 	C 	0.653	0.6656	0.576	-0.063
Mof_C 	C 	0.5184	0.9604	0.1136	-0.693
Mof_C 	C 	0.82828	0.13748	0.82216	-0.065
Mof_C 	C 	0.1755	0.1118	0.9352	0.278
Mof_C 	C 	0.268	0.9643	0.1218	-0.019
Mof_C 	C 	0.16259	0.27969	0.13218	0.008
Mof_C 	C 	0.07932	0.18662	0.86384	-0.03
Mof_C 	C 	0.78452	0.18662	0.86384	-0.032
Mof_C 	C 	0.1462	0.8425	0.8782	-0.014
Mof_C 	C 	0.8154	0.7154	0.887	-0.067
Mof_C 	C 	0.852	0.0002	0.1556	-0.037
Mof_C 	C 	0.79855	0.15165	0.8003	-0.031
Mof_C 	C 	0.6539	0.0027	0.836	-0.067
Mof_C 	C 	0.6964	0.9998	0.8444	-0.046
Mof_C 	C 	0.7237	0.0708	0.8984	-0.036
Mof_C 	C 	0.4816	0.0396	0.8864	-0.692
Mof_C 	C 	0.2777	0.2298	0.3046	-0.046
Mof_C 	C 	0.2987	0.1388	0.1834	0.336
Mof_C 	C 	0.1846	0.8284	0.113	-0.076
Mof_C 	C 	0.6877	0.9081	0.6498	-0.047
Mof_C 	C 	0.99825	0.35135	0.1997	-0.038
Mof_C 	C 	0.5184	0.1532	0.1136	-0.692
Mof_C 	C 	0.8154	0.1716	0.887	-0.067
Mof_C 	C 	0.9339	0.7	0.6248	0.028
Mof_C 	C 	0.0526	0.6056	0.7876	-0.04
Mof_C 	C 	0.03402	0.10962	0.54244	-0.795
Mof_C 	C 	0.7548	0.1877	0.1484	-0.081
Mof_C 	C 	0.08703	0.31073	0.35486	-0.052
Mof_C 	C 	0.5486	0.0002	0.1738	-0.62
Mof_C 	C 	0.8245	0.8882	0.0648	0.278
Mof_C 	C 	0.7238	0.1932	0.1512	0.015
Mof_C 	C 	0.76292	0.76402	0.71664	-0.014
Mof_C 	C 	0.732	0.8425	0.8782	-0.014
Mof_C 	C 	0.7597	0.8234	0.9352	0.278
Mof_C 	C 	0.6064	0.0393	0.8516	-0.079
Mof_C 	C 	0.0526	0.182	0.7876	-0.041
Mof_C 	C 	0.79855	0.64865	0.8003	-0.031
Mof_C 	C 	0.3036	0.1554	0.1556	-0.05
Mof_C 	C 	0.95372	0.95262	0.71664	-0.013
Mof_C 	C 	0.9339	0.9248	0.6248	0.027
Mof_C 	C 	0.7013	0.9554	0.8166	0.336
Mof_C 	C 	0.00612	0.86252	0.17784	-0.062
Mof_C 	C 	0.20145	0.84835	0.1997	-0.028
Mof_C 	C 	0.265	0.3944	0.2124	-0.044
Mof_C 	C 	0.83741	0.14751	0.86782	0.005
Mof_C 	C 	0.8538	0.9643	0.1218	-0.02
Mof_C 	C 	0.0379	0.2583	0.3502	-0.048
Mof_C 	C 	0.8947	0.8223	0.068	0.313
Mof_C 	C 	0.2084	0.8172	0.8932	-0.078
Mof_C 	C 	0.91297	0.68927	0.64514	-0.051
Mof_C 	C 	0.7239	0.9108	0.7282	0.347
Mof_C 	C 	0.3792	0.1016	0.4602	0.002
Mof_C 	C 	0.8253	0.9292	0.1016	-0.038
Mof_C 	C 	0.8847	0.0446	0.1834	0.332
Mof_C 	C 	0.6003	0.1587	0.632	-0.837
Mof_C 	C 	0.3936	0.1877	0.1484	-0.081
Mof_C 	C 	0.8504	0.108	0.7996	0.372
Mof_C 	C 	0.5726	0.8068	0.8488	0.021
Mof_C 	C 	0.3504	0.9599	0.1386	0.063
Mof_C 	C 	0.4274	0.958	0.1512	0.015
Mof_C 	C 	0.1821	0.8333	0.836	-0.071
Mof_C 	C 	0.9436	0.5925	0.4308	-0.707
Mof_C 	C 	0.9391	0.4198	0.2396	-0.029
Mof_C 	C 	0.0745	0.2762	0.308	-0.048
Mof_C 	C 	0.2248	0.3557	0.1814	0.01
Mof_C 	C 	0.735	0.182	0.7876	-0.042
Mof_C 	C 	0.5486	0.1736	0.1738	-0.629
Mof_C 	C 	0.852	0.1554	0.1556	-0.05
Mof_C 	C 	0.73217	0.95587	0.64514	-0.051
Mof_C 	C 	0.2777	0.0748	0.3046	-0.045
Mof_C 	C 	0.0269	0.2298	0.3046	-0.044
Mof_C 	C 	0.8078	0.7142	0.7148	0.304
Mof_C 	C 	0.92068	0.32278	0.13616	-0.033
Mof_C 	C 	0.96959	0.85249	0.13218	0.001
Mof_C 	C 	0.3461	0.9973	0.164	-0.081
Mof_C 	C 	0.2763	0.9292	0.1016	-0.039
Mof_C 	C 	0.8504	0.6916	0.7996	0.372
Mof_C 	C 	0.3152	0.924	0.1068	-0.081
Mof_C 	C 	0.6208	0.6414	0.5398	0.001
Mof_C 	C 	0.0434	0.6443	0.8186	0.012
Mof_C 	C 	0.0661	0.3	0.3752	0.029
Mof_C 	C 	0.2761	0.0892	0.2718	0.347
Mof_C 	C 	0.268	0.1575	0.1218	-0.008
Mof_C 	C 	0.1922	0.9994	0.2852	0.302
Mof_C 	C 	0.2248	0.8257	0.1814	0.01
Mof_C 	C 	0.347	0.0896	0.424	-0.063
Mof_C 	C 	0.0609	0.1802	0.7604	-0.027
Mof_C 	C 	0.76292	0.95262	0.71664	-0.014
Mof_C 	C 	0.3748	0.9998	0.8262	-0.63
Mof_C 	C 	0.148	0.8446	0.8444	-0.043
Mof_C 	C 	0.3123	0.0919	0.3502	-0.048
Mof_C 	C 	0.7752	0.6443	0.8186	0.016
Mof_C 	C 	0.5847	0.5123	0.6258	-0.729
Mof_C 	C 	0.96598	0.56718	0.45756	-0.795
Mof_C 	C 	0.4048	0.8468	0.8864	-0.693
Mof_C 	C 	0.04628	0.04738	0.28336	-0.015
Mof_C 	C 	0.5128	0.1617	0.5692	-0.707
Mof_C 	C 	0.1053	0.7543	0.932	0.313
Mof_C 	C 	0.8538	0.1575	0.1218	-0.008
Mof_C 	C 	0.83741	0.72031	0.86782	0.005
Mof_C 	C 	0.8947	0.2457	0.068	0.314
Mof_C 	C 	0.2762	0.042	0.8488	0.021
Mof_C 	C 	0.7916	0.1828	0.1068	-0.073
Mof_C 	C 	0.73217	0.68927	0.64514	-0.052
Mof_C 	C 	0.08703	0.04413	0.35486	-0.052
Mof_C 	C 	0.6496	0.0401	0.8614	0.061
Mof_C 	C 	0.9566	0.8257	0.1814	0.015
Mof_C 	C 	0.07932	0.67722	0.86384	-0.029
Mof_C 	C 	0.99388	0.68468	0.82216	-0.072
Mof_C 	C 	0.148	0.9998	0.8444	-0.044
Mof_C 	C 	0.2335	0.0318	0.308	-0.046
Mof_C 	C 	0.8179	0.9973	0.164	-0.083
Mof_C 	C 	0.2987	0.0446	0.1834	0.333
Mof_C 	C 	0.26783	0.31073	0.35486	-0.051
Mof_C 	C 	0.1496	0.892	0.2004	0.374
Mof_C 	C 	0.0716	0.7154	0.887	-0.069
Mof_C 	C 	0.7752	0.1743	0.8186	0.016
Mof_C 	C 	0.7548	0.9607	0.1484	-0.085
Mof_C 	C 	0.16259	0.85249	0.13218	0.008
Mof_C 	C 	0.3152	0.1828	0.1068	-0.074
Mof_C 	C 	0.1462	0.0357	0.8782	-0.012
Mof_C 	C 	0.907	0.0006	0.7148	0.305
Mof_C 	C 	0.6909	0.7	0.6248	0.028
Mof_C 	C 	0.7882	0.1787	0.1386	0.055
Mof_C 	C 	0.9957	0.0892	0.2718	0.346
Mof_C 	C 	0.1821	0.0027	0.836	-0.069
Mof_C 	C 	0.3997	0.5267	0.368	-0.836
Mof_C 	C 	0.49158	0.89038	0.45756	-0.795
Mof_C 	C 	0.1053	0.1777	0.932	0.313
Mof_C 	C 	0.17172	0.31532	0.17784	-0.071
Mof_C 	C 	0.3748	0.8264	0.8262	-0.628
Mof_C 	C 	0.735	0.6056	0.7876	-0.042
Mof_C 	C 	0.923	0.6656	0.576	-0.063
Mof_C 	C 	0.9474	0.3944	0.2124	-0.046
Mof_C 	C 	0.78452	0.67722	0.86384	-0.032
Mof_C 	C 	0.0317	0.1587	0.632	-0.838
Mof_C 	C 	0.0269	0.0748	0.3046	-0.044
Mof_C 	C 	0.907	0.7142	0.7148	0.304
Mof_C 	C 	0.0043	0.9108	0.7282	0.348
Mof_C 	C 	0.1496	0.3084	0.2004	0.374
Mof_C 	C 	0.3461	0.1667	0.164	-0.068
Mof_C 	C 	0.9621	0.9081	0.6498	-0.047
Mof_C 	C 	0.1747	0.0708	0.8984	-0.035
Mof_C 	C 	0.23708	0.04738	0.28336	-0.015
Mof_C 	C 	0.6995	0.1802	0.7604	-0.027
Mof_C 	C 	0.4514	0.9998	0.8262	-0.63
Mof_C 	C 	0.077	0.0896	0.424	-0.063
Mof_C 	C 	0.081	0.3586	0.4602	0.002
Mof_C 	C 	0.6252	0.1736	0.1738	-0.629
Mof_C 	C 	0.919	0.6414	0.5398	0.001
Mof_C 	C 	0.1755	0.8234	0.9352	0.278
Mof_C 	C 	0.3997	0.8413	0.368	-0.836
Mof_C 	C 	0.0609	0.5802	0.7604	-0.028
Mof_C 	C 	0.3005	0.4198	0.2396	-0.03
Mof_C 	C 	0.0434	0.1743	0.8186	0.013
Mof_C 	C 	0.82828	0.68468	0.82216	-0.065
Mof_C 	C 	0.347	0.3344	0.424	-0.063
Mof_C 	C 	0.7237	0.8276	0.8984	-0.034
Mof_C 	C 	0.4872	0.8383	0.4308	-0.707
Mof_C 	C 	0.9492	0.108	0.7996	0.374
Mof_C 	C 	0.3792	0.3586	0.4602	0.002
Mof_C 	C 	0.9255	0.7238	0.692	-0.048
Mof_C 	C 	0.7916	0.924	0.1068	-0.082
Mof_C 	C 	0.8179	0.1667	0.164	-0.068
Mof_C 	C 	0.0564	0.1617	0.5692	-0.707
Mof_C 	C 	0.3123	0.2583	0.3502	-0.047
Mof_C 	C 	0.0043	0.8174	0.7282	0.348
Mof_C 	C 	0.1153	0.9554	0.8166	0.335
Mof_C 	C 	0.03041	0.14751	0.86782	0.008
Mof_C 	C 	0.00175	0.15165	0.8003	-0.025
Mof_C 	C 	0.3504	0.1787	0.1386	0.055
Mof_O 	O 	0.84332	0.65942	0.76324	-0.429
Mof_O 	O 	0.80109	0.84407	0.95078	-0.341
Mof_O 	O 	0.09273	0.87903	0.83128	-0.401
Mof_O 	O 	0.14925	0.21054	0.04908	-0.412
Mof_O 	O 	0.14969	0.84407	0.95078	-0.341
Mof_O 	O 	0.11099	0.9245	0.7774	-0.404
Mof_O 	O 	0.10017	0.16146	0.95092	-0.39
Mof_O 	O 	0.09273	0.95225	0.83128	-0.401
Mof_O 	O 	0.87486	0.09482	0.82344	-0.409
Mof_O 	O 	0.33359	0.0755	0.2226	-0.404
Mof_O 	O 	0.75761	0.80576	0.95552	-0.387
Mof_O 	O 	0.11611	0.98346	0.30852	-0.381
Mof_O 	O 	0.24578	0.15253	0.23746	-0.443
Mof_O 	O 	0.85075	0.78946	0.95092	-0.389
Mof_O 	O 	0.91992	0.10382	0.76324	-0.429
Mof_O 	O 	0.8399	0.74617	0.75444	-0.393
Mof_O 	O 	0.19891	0.89329	0.04922	-0.362
Mof_O 	O 	0.88901	0.1471	0.2226	-0.405
Mof_O 	O 	0.73855	0.87903	0.83128	-0.401
Mof_O 	O 	0.90727	0.04775	0.16872	-0.404
Mof_O 	O 	0.1601	0.25383	0.24556	-0.395
Mof_O 	O 	0.97606	0.18433	0.29446	-0.386
Mof_O 	O 	0.26145	0.12097	0.16872	-0.405
Mof_O 	O 	0.80209	0.85024	0.04448	-0.411
Mof_O 	O 	0.02394	0.81567	0.70554	-0.385
Mof_O 	O 	0.6816	0.81567	0.70554	-0.385
Mof_O 	O 	0.08546	0.25383	0.24556	-0.395
Mof_O 	O 	0.00832	0.91507	0.76254	-0.441
Mof_O 	O 	0.80759	0.01654	0.69148	-0.381
Mof_O 	O 	0.91454	0.00827	0.75444	-0.394
Mof_O 	O 	0.85031	0.89329	0.04922	-0.363
Mof_O 	O 	0.8399	0.00827	0.75444	-0.393
Mof_O 	O 	0.88389	0.67494	0.69148	-0.381
Mof_O 	O 	0.91992	0.65942	0.76324	-0.43
Mof_O 	O 	0.94858	0.72862	0.82344	-0.41
Mof_O 	O 	0.19891	0.15593	0.04922	-0.362
Mof_O 	O 	0.80405	0.20136	0.94998	-0.359
Mof_O 	O 	0.24578	0.08493	0.23746	-0.443
Mof_O 	O 	0.80759	0.67494	0.69148	-0.381
Mof_O 	O 	0.19595	0.79864	0.05002	-0.381
Mof_O 	O 	0.91454	0.74617	0.75444	-0.394
Mof_O 	O 	0.15668	0.89618	0.23676	-0.431
Mof_O 	O 	0.24239	0.85024	0.04448	-0.411
Mof_O 	O 	0.66641	0.9245	0.7774	-0.404
Mof_O 	O 	0.99168	0.08493	0.23746	-0.443
Mof_O 	O 	0.88901	0.0755	0.2226	-0.404
Mof_O 	O 	0.89983	0.83854	0.04908	-0.412
Mof_O 	O 	0.85407	0.79864	0.05002	-0.381
Mof_O 	O 	0.14593	0.20136	0.94998	-0.359
Mof_O 	O 	0.10017	0.78946	0.95092	-0.389
Mof_O 	O 	0.19241	0.98346	0.30852	-0.381
Mof_O 	O 	0.12514	0.90518	0.17656	-0.414
Mof_O 	O 	0.97606	0.11013	0.29446	-0.386
Mof_O 	O 	0.6816	0.88987	0.70554	-0.386
Mof_O 	O 	0.26145	0.04775	0.16872	-0.404
Mof_O 	O 	0.19241	0.32506	0.30852	-0.381
Mof_O 	O 	0.89983	0.21054	0.04908	-0.412
Mof_O 	O 	0.85031	0.15593	0.04922	-0.362
Mof_O 	O 	0.19791	0.80576	0.95552	-0.387
Mof_O 	O 	0.15668	0.34058	0.23676	-0.431
Mof_O 	O 	0.02394	0.88987	0.70554	-0.385
Mof_O 	O 	0.00832	0.84747	0.76254	-0.441
Mof_O 	O 	0.05142	0.27138	0.17656	-0.413
Mof_O 	O 	0.11099	0.8529	0.7774	-0.404
Mof_O 	O 	0.05142	0.90518	0.17656	-0.413
Mof_O 	O 	0.85407	0.25138	0.05002	-0.381
Mof_O 	O 	0.80405	0.74862	0.94998	-0.358
Mof_O 	O 	0.08008	0.34058	0.23676	-0.43
Mof_O 	O 	0.3184	0.18433	0.29446	-0.385
Mof_O 	O 	0.08008	0.89618	0.23676	-0.43
Mof_O 	O 	0.19595	0.25138	0.05002	-0.381
Mof_O 	O 	0.75422	0.84747	0.76254	-0.441
Mof_O 	O 	0.73855	0.95225	0.83128	-0.401
Mof_O 	O 	0.08546	0.99173	0.24556	-0.395
Mof_O 	O 	0.94858	0.09482	0.82344	-0.41
Mof_O 	O 	0.24239	0.19424	0.04448	-0.411
Mof_O 	O 	0.19791	0.14976	0.95552	-0.388
Mof_O 	O 	0.85075	0.16146	0.95092	-0.39
Mof_O 	O 	0.80109	0.10671	0.95078	-0.341
Mof_O 	O 	0.33359	0.1471	0.2226	-0.405
Mof_O 	O 	0.84332	0.10382	0.76324	-0.429
Mof_O 	O 	0.75422	0.91507	0.76254	-0.441
Mof_O 	O 	0.12514	0.27138	0.17656	-0.414
Mof_O 	O 	0.90727	0.12097	0.16872	-0.406
Mof_O 	O 	0.11611	0.32506	0.30852	-0.381
Mof_O 	O 	0.87486	0.72862	0.82344	-0.41
Mof_O 	O 	0.99168	0.15253	0.23746	-0.443
Mof_O 	O 	0.14925	0.83854	0.04908	-0.412
Mof_O 	O 	0.75761	0.14976	0.95552	-0.387
Mof_O 	O 	0.14969	0.10671	0.95078	-0.341
Mof_O 	O 	0.88389	0.01654	0.69148	-0.381
Mof_O 	O 	0.3184	0.11013	0.29446	-0.385
Mof_O 	O 	0.14593	0.74862	0.94998	-0.359
Mof_O 	O 	0.66641	0.8529	0.7774	-0.404
Mof_O 	O 	0.1601	0.99173	0.24556	-0.395
Mof_O 	O 	0.80209	0.19424	0.04448	-0.411
_end
