data_functionalizedCrystal
_audit_creation_method	'EQeq! by Chris Wilmer'
_symmetry_space_group_name_H-M	'P1'
_symmetry_Int_Tables_number	1
_symmetry_cell_setting	triclinic
loop_
_symmetry_equiv_pos_as_xyz
  x,y,z
_cell_length_a	31.535
_cell_length_b	31.535
_cell_length_c	31.535
_cell_angle_alpha	90
_cell_angle_beta	90
_cell_angle_gamma	90
loop_
_atom_site_label
_atom_site_type_symbol
_atom_site_fract_x
_atom_site_fract_y
_atom_site_fract_z
_atom_site_charge
Mof_N 	N 	0.9716	0.70545	0.159	-0.284
Mof_C 	C 	0.98435	0.66507	0.1678	0.098
Mof_H 	H 	0.0096	0.6526	0.159	-0.038
Mof_N 	N 	0.9536	0.64624	0.1916	-0.136
Mof_C 	C 	0.9219	0.675	0.1976	0.004
Mof_H 	H 	0.897	0.6704	0.2128	0.023
Mof_C 	C 	0.933	0.71157	0.1775	-0.009
Mof_H 	H 	0.917	0.7363	0.1765	0.001
Mof_C 	C 	0.9532	0.6001	0.2032	0.061
Mof_C 	C 	0.9154	0.5802	0.2135	-0.073
Mof_H 	H 	0.8897	0.5941	0.2092	0.054
Mof_C 	C 	0.9158	0.5395	0.2302	-0.031
Mof_H 	H 	0.8904	0.5261	0.2372	0.028
Mof_C 	C 	0.954	0.5188	0.2366	0.013
Mof_C 	C 	0.9919	0.5387	0.2263	-0.018
Mof_H 	H 	0.0175	0.5247	0.2306	0.011
Mof_C 	C 	0.9914	0.5793	0.2096	-0.095
Mof_H 	H 	0.0168	0.5927	0.2027	0.044
Mof_C 	C 	0.9577	0.6077	0.2124	0.023
Mof_C 	C 	0.9338	0.5978	0.2479	-0.046
Mof_H 	H 	0.9168	0.6184	0.2605	0.045
Mof_C 	C 	0.9354	0.5573	0.2648	-0.024
Mof_H 	H 	0.9194	0.5506	0.2887	0.034
Mof_C 	C 	0.9607	0.5266	0.2461	-0.014
Mof_C 	C 	0.9846	0.5366	0.2105	0.007
Mof_H 	H 	0.0016	0.516	0.198	0.01
Mof_C 	C 	0.983	0.5771	0.1937	-0.001
Mof_H 	H 	0.999	0.5838	0.1698	0.029
Mof_N 	N 	0.4716	0.20545	0.659	-0.283
Mof_C 	C 	0.48435	0.16507	0.6678	0.077
Mof_H 	H 	0.5096	0.1526	0.659	-0.022
Mof_N 	N 	0.4536	0.14624	0.6916	-0.134
Mof_C 	C 	0.4219	0.175	0.6976	0.004
Mof_H 	H 	0.397	0.1704	0.7128	0.023
Mof_C 	C 	0.433	0.21157	0.6775	-0.01
Mof_H 	H 	0.417	0.2363	0.6765	0.001
Mof_C 	C 	0.4532	0.1001	0.7032	0.056
Mof_C 	C 	0.4154	0.0802	0.7135	-0.068
Mof_H 	H 	0.3897	0.0941	0.7092	0.052
Mof_C 	C 	0.4158	0.0395	0.7302	-0.032
Mof_H 	H 	0.3904	0.0261	0.7372	0.024
Mof_C 	C 	0.454	0.0188	0.7366	0.008
Mof_C 	C 	0.4919	0.0387	0.7263	-0.018
Mof_H 	H 	0.5175	0.0247	0.7306	0.012
Mof_C 	C 	0.4914	0.0793	0.7096	-0.08
Mof_H 	H 	0.5168	0.0927	0.7027	0.048
Mof_C 	C 	0.4577	0.1077	0.7124	0.028
Mof_C 	C 	0.4338	0.0978	0.7479	-0.055
Mof_H 	H 	0.4168	0.1184	0.7605	0.047
Mof_C 	C 	0.4354	0.0573	0.7648	-0.02
Mof_H 	H 	0.4194	0.0506	0.7887	0.029
Mof_C 	C 	0.4607	0.0266	0.7461	-0.02
Mof_C 	C 	0.4846	0.0366	0.7105	-0.01
Mof_H 	H 	0.5016	0.016	0.698	0.019
Mof_C 	C 	0.483	0.0771	0.6937	-0.02
Mof_H 	H 	0.499	0.0838	0.6698	0.028
Mof_N 	N 	0.5284	0.29455	0.659	-0.283
Mof_C 	C 	0.51565	0.33493	0.6678	0.077
Mof_H 	H 	0.4904	0.3474	0.659	-0.022
Mof_N 	N 	0.5464	0.35376	0.6916	-0.133
Mof_C 	C 	0.5781	0.325	0.6976	0.004
Mof_H 	H 	0.603	0.3296	0.7128	0.023
Mof_C 	C 	0.567	0.28843	0.6775	-0.009
Mof_H 	H 	0.583	0.2637	0.6765	0.001
Mof_C 	C 	0.5468	0.3999	0.7032	0.055
Mof_C 	C 	0.5846	0.4198	0.7135	-0.067
Mof_H 	H 	0.6103	0.4059	0.7092	0.052
Mof_C 	C 	0.5842	0.4605	0.7302	-0.033
Mof_H 	H 	0.6096	0.4739	0.7372	0.028
Mof_C 	C 	0.546	0.4812	0.7366	0.012
Mof_C 	C 	0.5081	0.4613	0.7263	-0.019
Mof_H 	H 	0.4825	0.4753	0.7306	0.016
Mof_C 	C 	0.5086	0.4207	0.7096	-0.078
Mof_H 	H 	0.4832	0.4073	0.7027	0.047
Mof_C 	C 	0.5423	0.3923	0.7124	0.027
Mof_C 	C 	0.5662	0.4022	0.7479	-0.052
Mof_H 	H 	0.5832	0.3816	0.7605	0.046
Mof_C 	C 	0.5646	0.4427	0.7648	-0.025
Mof_H 	H 	0.5806	0.4494	0.7887	0.033
Mof_C 	C 	0.5393	0.4734	0.7461	-0.011
Mof_C 	C 	0.5154	0.4634	0.7105	-0.016
Mof_H 	H 	0.4984	0.484	0.698	0.024
Mof_C 	C 	0.517	0.4229	0.6937	-0.019
Mof_H 	H 	0.501	0.4162	0.6698	0.028
Mof_N 	N 	0.0284	0.79455	0.159	-0.281
Mof_C 	C 	0.01565	0.83493	0.1678	0.056
Mof_H 	H 	0.9904	0.8474	0.159	-0.007
Mof_N 	N 	0.0464	0.85376	0.1916	-0.13
Mof_C 	C 	0.0781	0.825	0.1976	0.003
Mof_H 	H 	0.103	0.8296	0.2128	0.024
Mof_C 	C 	0.067	0.78843	0.1775	-0.01
Mof_H 	H 	0.083	0.7637	0.1765	0.001
Mof_C 	C 	0.0468	0.8999	0.2032	0.048
Mof_C 	C 	0.0846	0.9198	0.2135	-0.059
Mof_H 	H 	0.1103	0.9059	0.2092	0.049
Mof_C 	C 	0.0842	0.9605	0.2302	-0.036
Mof_H 	H 	0.1096	0.9739	0.2372	0.033
Mof_C 	C 	0.046	0.9812	0.2366	0.014
Mof_C 	C 	0.0081	0.9613	0.2263	-0.022
Mof_H 	H 	0.9825	0.9753	0.2306	0.024
Mof_C 	C 	0.0086	0.9207	0.2096	-0.058
Mof_H 	H 	0.9832	0.9073	0.2027	0.049
Mof_C 	C 	0.0423	0.8923	0.2124	0.031
Mof_C 	C 	0.0662	0.9022	0.2479	-0.055
Mof_H 	H 	0.0832	0.8816	0.2605	0.047
Mof_C 	C 	0.0646	0.9427	0.2648	-0.032
Mof_H 	H 	0.0806	0.9494	0.2887	0.037
Mof_C 	C 	0.0393	0.9734	0.2461	0.002
Mof_C 	C 	0.0154	0.9634	0.2105	-0.044
Mof_H 	H 	0.9984	0.984	0.198	0.044
Mof_C 	C 	0.017	0.9229	0.1937	-0.035
Mof_H 	H 	0.001	0.9162	0.1698	0.027
Mof_N 	N 	0.0284	0.20545	0.341	-0.281
Mof_C 	C 	0.01565	0.16507	0.3322	0.056
Mof_H 	H 	0.9904	0.1526	0.341	-0.007
Mof_N 	N 	0.0464	0.14624	0.3084	-0.131
Mof_C 	C 	0.0781	0.175	0.3024	0.003
Mof_H 	H 	0.103	0.1704	0.2872	0.023
Mof_C 	C 	0.067	0.21157	0.3225	-0.01
Mof_H 	H 	0.083	0.2363	0.3235	0.001
Mof_C 	C 	0.0468	0.1001	0.2968	0.05
Mof_C 	C 	0.0846	0.0802	0.2865	-0.061
Mof_H 	H 	0.1103	0.0941	0.2908	0.05
Mof_C 	C 	0.0842	0.0395	0.2698	-0.033
Mof_H 	H 	0.1096	0.0261	0.2628	0.025
Mof_C 	C 	0.046	0.0188	0.2634	0.007
Mof_C 	C 	0.0081	0.0387	0.2737	-0.02
Mof_H 	H 	0.9825	0.0247	0.2694	0.017
Mof_C 	C 	0.0086	0.0793	0.2904	-0.063
Mof_H 	H 	0.9832	0.0927	0.2973	0.051
Mof_C 	C 	0.0423	0.1077	0.2876	0.032
Mof_C 	C 	0.0662	0.0978	0.2521	-0.061
Mof_H 	H 	0.0832	0.1184	0.2395	0.048
Mof_C 	C 	0.0646	0.0573	0.2352	-0.021
Mof_H 	H 	0.0806	0.0506	0.2113	0.028
Mof_C 	C 	0.0393	0.0266	0.2539	-0.017
Mof_C 	C 	0.0154	0.0366	0.2895	-0.032
Mof_H 	H 	0.9984	0.016	0.302	0.033
Mof_C 	C 	0.017	0.0771	0.3063	-0.039
Mof_H 	H 	0.001	0.0838	0.3302	0.027
Mof_N 	N 	0.5284	0.70545	0.841	-0.282
Mof_C 	C 	0.51565	0.66507	0.8322	0.078
Mof_H 	H 	0.4904	0.6526	0.841	-0.022
Mof_N 	N 	0.5464	0.64624	0.8084	-0.133
Mof_C 	C 	0.5781	0.675	0.8024	0.004
Mof_H 	H 	0.603	0.6704	0.7872	0.023
Mof_C 	C 	0.567	0.71157	0.8225	-0.009
Mof_H 	H 	0.583	0.7363	0.8235	0.001
Mof_C 	C 	0.5468	0.6001	0.7968	0.055
Mof_C 	C 	0.5846	0.5802	0.7865	-0.066
Mof_H 	H 	0.6103	0.5941	0.7908	0.052
Mof_C 	C 	0.5842	0.5395	0.7698	-0.033
Mof_H 	H 	0.6096	0.5261	0.7628	0.028
Mof_C 	C 	0.546	0.5188	0.7634	0.011
Mof_C 	C 	0.5081	0.5387	0.7737	-0.019
Mof_H 	H 	0.4825	0.5247	0.7694	0.015
Mof_C 	C 	0.5086	0.5793	0.7904	-0.077
Mof_H 	H 	0.4832	0.5927	0.7973	0.047
Mof_C 	C 	0.5423	0.6077	0.7876	0.027
Mof_C 	C 	0.5662	0.5978	0.7521	-0.052
Mof_H 	H 	0.5832	0.6184	0.7395	0.046
Mof_C 	C 	0.5646	0.5573	0.7352	-0.026
Mof_H 	H 	0.5806	0.5506	0.7113	0.033
Mof_C 	C 	0.5393	0.5266	0.7539	-0.01
Mof_C 	C 	0.5154	0.5366	0.7895	-0.016
Mof_H 	H 	0.4984	0.516	0.802	0.025
Mof_C 	C 	0.517	0.5771	0.8063	-0.019
Mof_H 	H 	0.501	0.5838	0.8302	0.029
Mof_N 	N 	0.4716	0.79455	0.841	-0.282
Mof_C 	C 	0.48435	0.83493	0.8322	0.078
Mof_H 	H 	0.5096	0.8474	0.841	-0.021
Mof_N 	N 	0.4536	0.85376	0.8084	-0.133
Mof_C 	C 	0.4219	0.825	0.8024	0.004
Mof_H 	H 	0.397	0.8296	0.7872	0.023
Mof_C 	C 	0.433	0.78843	0.8225	-0.009
Mof_H 	H 	0.417	0.7637	0.8235	0.001
Mof_C 	C 	0.4532	0.8999	0.7968	0.053
Mof_C 	C 	0.4154	0.9198	0.7865	-0.065
Mof_H 	H 	0.3897	0.9059	0.7908	0.051
Mof_C 	C 	0.4158	0.9605	0.7698	-0.034
Mof_H 	H 	0.3904	0.9739	0.7628	0.033
Mof_C 	C 	0.454	0.9812	0.7634	0.015
Mof_C 	C 	0.4919	0.9613	0.7737	-0.02
Mof_H 	H 	0.5175	0.9753	0.7694	0.019
Mof_C 	C 	0.4914	0.9207	0.7904	-0.075
Mof_H 	H 	0.5168	0.9073	0.7973	0.046
Mof_C 	C 	0.4577	0.8923	0.7876	0.027
Mof_C 	C 	0.4338	0.9022	0.7521	-0.049
Mof_H 	H 	0.4168	0.8816	0.7395	0.045
Mof_C 	C 	0.4354	0.9427	0.7352	-0.031
Mof_H 	H 	0.4194	0.9494	0.7113	0.037
Mof_C 	C 	0.4607	0.9734	0.7539	-0.001
Mof_C 	C 	0.4846	0.9634	0.7895	-0.022
Mof_H 	H 	0.5016	0.984	0.802	0.03
Mof_C 	C 	0.483	0.9229	0.8063	-0.018
Mof_H 	H 	0.499	0.9162	0.8302	0.029
Mof_N 	N 	0.9716	0.29455	0.341	-0.283
Mof_C 	C 	0.98435	0.33493	0.3322	0.099
Mof_H 	H 	0.0096	0.3474	0.341	-0.036
Mof_N 	N 	0.9536	0.35376	0.3084	-0.136
Mof_C 	C 	0.9219	0.325	0.3024	0.004
Mof_H 	H 	0.897	0.3296	0.2872	0.023
Mof_C 	C 	0.933	0.28843	0.3225	-0.009
Mof_H 	H 	0.917	0.2637	0.3235	0.001
Mof_C 	C 	0.9532	0.3999	0.2968	0.061
Mof_C 	C 	0.9154	0.4198	0.2865	-0.073
Mof_H 	H 	0.8897	0.4059	0.2908	0.054
Mof_C 	C 	0.9158	0.4605	0.2698	-0.031
Mof_H 	H 	0.8904	0.4739	0.2628	0.027
Mof_C 	C 	0.954	0.4812	0.2634	0.012
Mof_C 	C 	0.9919	0.4613	0.2737	-0.017
Mof_H 	H 	0.0175	0.4753	0.2694	0.01
Mof_C 	C 	0.9914	0.4207	0.2904	-0.095
Mof_H 	H 	0.0168	0.4073	0.2973	0.044
Mof_C 	C 	0.9577	0.3923	0.2876	0.023
Mof_C 	C 	0.9338	0.4022	0.2521	-0.046
Mof_H 	H 	0.9168	0.3816	0.2395	0.045
Mof_C 	C 	0.9354	0.4427	0.2352	-0.025
Mof_H 	H 	0.9194	0.4494	0.2113	0.033
Mof_C 	C 	0.9607	0.4734	0.2539	-0.014
Mof_C 	C 	0.9846	0.4634	0.2895	0.006
Mof_H 	H 	0.0016	0.484	0.302	0.01
Mof_C 	C 	0.983	0.4229	0.3063	-0.001
Mof_H 	H 	0.999	0.4162	0.3302	0.029
Mof_N 	N 	0.54455	0.7784	0.909	-0.283
Mof_C 	C 	0.58493	0.76565	0.9178	0.078
Mof_H 	H 	0.5974	0.7404	0.909	-0.021
Mof_N 	N 	0.60376	0.7964	0.9416	-0.132
Mof_C 	C 	0.575	0.8281	0.9476	0.004
Mof_H 	H 	0.5796	0.853	0.9628	0.027
Mof_C 	C 	0.53843	0.817	0.9275	-0.009
Mof_H 	H 	0.5137	0.833	0.9265	0.002
Mof_C 	C 	0.6499	0.7968	0.9532	0.034
Mof_C 	C 	0.6698	0.8346	0.9635	-0.094
Mof_H 	H 	0.6559	0.8603	0.9592	0.063
Mof_C 	C 	0.7105	0.8342	0.9802	-0.008
Mof_H 	H 	0.7239	0.8596	0.9872	0.023
Mof_C 	C 	0.7312	0.796	0.9866	0.057
Mof_C 	C 	0.7113	0.7581	0.9763	-0.037
Mof_H 	H 	0.7253	0.7325	0.9806	0.026
Mof_C 	C 	0.6707	0.7586	0.9596	-0.072
Mof_H 	H 	0.6573	0.7332	0.9527	0.046
Mof_C 	C 	0.6423	0.7923	0.9624	0.036
Mof_C 	C 	0.6522	0.8162	0.9979	0.017
Mof_H 	H 	0.6316	0.8332	0.0105	0.014
Mof_C 	C 	0.6927	0.8146	0.0148	-0.086
Mof_H 	H 	0.6994	0.8306	0.0387	0.053
Mof_C 	C 	0.7234	0.7893	0.9961	-0.026
Mof_C 	C 	0.7134	0.7654	0.9605	-0.011
Mof_H 	H 	0.734	0.7484	0.948	0.023
Mof_C 	C 	0.6729	0.767	0.9437	-0.014
Mof_H 	H 	0.6662	0.751	0.9198	0.026
Mof_N 	N 	0.04455	0.2784	0.409	-0.284
Mof_C 	C 	0.08493	0.26565	0.4178	0.077
Mof_H 	H 	0.0974	0.2404	0.409	-0.022
Mof_N 	N 	0.10376	0.2964	0.4416	-0.133
Mof_C 	C 	0.075	0.3281	0.4476	0.003
Mof_H 	H 	0.0796	0.353	0.4628	0.022
Mof_C 	C 	0.03843	0.317	0.4275	-0.01
Mof_H 	H 	0.0137	0.333	0.4265	-0.003
Mof_C 	C 	0.1499	0.2968	0.4532	0.055
Mof_C 	C 	0.1698	0.3346	0.4635	-0.066
Mof_H 	H 	0.1559	0.3603	0.4592	0.051
Mof_C 	C 	0.2105	0.3342	0.4802	-0.033
Mof_H 	H 	0.2239	0.3596	0.4872	0.028
Mof_C 	C 	0.2312	0.296	0.4866	0.012
Mof_C 	C 	0.2113	0.2581	0.4763	-0.019
Mof_H 	H 	0.2253	0.2325	0.4806	0.016
Mof_C 	C 	0.1707	0.2586	0.4596	-0.078
Mof_H 	H 	0.1573	0.2332	0.4527	0.047
Mof_C 	C 	0.1423	0.2923	0.4624	0.027
Mof_C 	C 	0.1522	0.3162	0.4979	-0.052
Mof_H 	H 	0.1316	0.3332	0.5105	0.046
Mof_C 	C 	0.1927	0.3146	0.5148	-0.026
Mof_H 	H 	0.1994	0.3306	0.5387	0.033
Mof_C 	C 	0.2234	0.2893	0.4961	-0.011
Mof_C 	C 	0.2134	0.2654	0.4605	-0.016
Mof_H 	H 	0.234	0.2484	0.448	0.024
Mof_C 	C 	0.1729	0.267	0.4437	-0.019
Mof_H 	H 	0.1662	0.251	0.4198	0.028
Mof_N 	N 	0.95545	0.2216	0.409	-0.28
Mof_C 	C 	0.91507	0.23435	0.4178	0.078
Mof_H 	H 	0.9026	0.2596	0.409	-0.021
Mof_N 	N 	0.89624	0.2036	0.4416	-0.133
Mof_C 	C 	0.925	0.1719	0.4476	0.005
Mof_H 	H 	0.9204	0.147	0.4628	0.024
Mof_C 	C 	0.96157	0.183	0.4275	-0.009
Mof_H 	H 	0.9863	0.167	0.4265	0.005
Mof_C 	C 	0.8501	0.2032	0.4532	0.055
Mof_C 	C 	0.8302	0.1654	0.4635	-0.067
Mof_H 	H 	0.8441	0.1397	0.4592	0.052
Mof_C 	C 	0.7895	0.1658	0.4802	-0.033
Mof_H 	H 	0.7761	0.1404	0.4872	0.028
Mof_C 	C 	0.7688	0.204	0.4866	0.012
Mof_C 	C 	0.7887	0.2419	0.4763	-0.019
Mof_H 	H 	0.7747	0.2675	0.4806	0.016
Mof_C 	C 	0.8293	0.2414	0.4596	-0.078
Mof_H 	H 	0.8427	0.2668	0.4527	0.047
Mof_C 	C 	0.8577	0.2077	0.4624	0.027
Mof_C 	C 	0.8478	0.1838	0.4979	-0.052
Mof_H 	H 	0.8684	0.1668	0.5105	0.046
Mof_C 	C 	0.8073	0.1854	0.5148	-0.026
Mof_H 	H 	0.8006	0.1694	0.5387	0.033
Mof_C 	C 	0.7766	0.2107	0.4961	-0.011
Mof_C 	C 	0.7866	0.2346	0.4605	-0.016
Mof_H 	H 	0.766	0.2516	0.448	0.024
Mof_C 	C 	0.8271	0.233	0.4437	-0.019
Mof_H 	H 	0.8338	0.249	0.4198	0.028
Mof_N 	N 	0.45545	0.7216	0.909	-0.283
Mof_C 	C 	0.41507	0.73435	0.9178	0.078
Mof_H 	H 	0.4026	0.7596	0.909	-0.021
Mof_N 	N 	0.39624	0.7036	0.9416	-0.132
Mof_C 	C 	0.425	0.6719	0.9476	0.004
Mof_H 	H 	0.4204	0.647	0.9628	0.026
Mof_C 	C 	0.46157	0.683	0.9275	-0.009
Mof_H 	H 	0.4863	0.667	0.9265	0.002
Mof_C 	C 	0.3501	0.7032	0.9532	0.034
Mof_C 	C 	0.3302	0.6654	0.9635	-0.094
Mof_H 	H 	0.3441	0.6397	0.9592	0.063
Mof_C 	C 	0.2895	0.6658	0.9802	-0.008
Mof_H 	H 	0.2761	0.6404	0.9872	0.022
Mof_C 	C 	0.2688	0.704	0.9866	0.057
Mof_C 	C 	0.2887	0.7419	0.9763	-0.037
Mof_H 	H 	0.2747	0.7675	0.9806	0.026
Mof_C 	C 	0.3293	0.7414	0.9596	-0.072
Mof_H 	H 	0.3427	0.7668	0.9527	0.046
Mof_C 	C 	0.3577	0.7077	0.9624	0.036
Mof_C 	C 	0.3478	0.6838	0.9979	0.017
Mof_H 	H 	0.3684	0.6668	0.0105	0.014
Mof_C 	C 	0.3073	0.6854	0.0148	-0.086
Mof_H 	H 	0.3006	0.6694	0.0387	0.053
Mof_C 	C 	0.2766	0.7107	0.9961	-0.026
Mof_C 	C 	0.2866	0.7346	0.9605	-0.011
Mof_H 	H 	0.266	0.7516	0.948	0.023
Mof_C 	C 	0.3271	0.733	0.9437	-0.014
Mof_H 	H 	0.3338	0.749	0.9198	0.026
Mof_N 	N 	0.04455	0.7216	0.091	-0.284
Mof_C 	C 	0.08493	0.73435	0.0822	0.077
Mof_H 	H 	0.0974	0.7596	0.091	-0.022
Mof_N 	N 	0.10376	0.7036	0.0584	-0.135
Mof_C 	C 	0.075	0.6719	0.0524	0.002
Mof_H 	H 	0.0796	0.647	0.0372	0.02
Mof_C 	C 	0.03843	0.683	0.0725	-0.011
Mof_H 	H 	0.0137	0.667	0.0735	-0.003
Mof_C 	C 	0.1499	0.7032	0.0468	0.075
Mof_C 	C 	0.1698	0.6654	0.0365	-0.039
Mof_H 	H 	0.1559	0.6397	0.0408	0.04
Mof_C 	C 	0.2105	0.6658	0.0198	-0.058
Mof_H 	H 	0.2239	0.6404	0.0128	0.034
Mof_C 	C 	0.2312	0.704	0.0134	-0.033
Mof_C 	C 	0.2113	0.7419	0.0237	-0.002
Mof_H 	H 	0.2253	0.7675	0.0194	0.006
Mof_C 	C 	0.1707	0.7414	0.0404	-0.084
Mof_H 	H 	0.1573	0.7668	0.0473	0.048
Mof_C 	C 	0.1423	0.7077	0.0376	0.019
Mof_C 	C 	0.1522	0.6838	0.0021	-0.12
Mof_H 	H 	0.1316	0.6668	0.9895	0.078
Mof_C 	C 	0.1927	0.6854	0.9852	0.035
Mof_H 	H 	0.1994	0.6694	0.9613	0.013
Mof_C 	C 	0.2234	0.7107	0.0039	0.004
Mof_C 	C 	0.2134	0.7346	0.0395	-0.021
Mof_H 	H 	0.234	0.7516	0.052	0.026
Mof_C 	C 	0.1729	0.733	0.0563	-0.024
Mof_H 	H 	0.1662	0.749	0.0802	0.03
Mof_N 	N 	0.54455	0.2216	0.591	-0.283
Mof_C 	C 	0.58493	0.23435	0.5822	0.077
Mof_H 	H 	0.5974	0.2596	0.591	-0.022
Mof_N 	N 	0.60376	0.2036	0.5584	-0.133
Mof_C 	C 	0.575	0.1719	0.5524	0.004
Mof_H 	H 	0.5796	0.147	0.5372	0.023
Mof_C 	C 	0.53843	0.183	0.5725	-0.01
Mof_H 	H 	0.5137	0.167	0.5735	0.001
Mof_C 	C 	0.6499	0.2032	0.5468	0.055
Mof_C 	C 	0.6698	0.1654	0.5365	-0.067
Mof_H 	H 	0.6559	0.1397	0.5408	0.051
Mof_C 	C 	0.7105	0.1658	0.5198	-0.033
Mof_H 	H 	0.7239	0.1404	0.5128	0.028
Mof_C 	C 	0.7312	0.204	0.5134	0.012
Mof_C 	C 	0.7113	0.2419	0.5237	-0.019
Mof_H 	H 	0.7253	0.2675	0.5194	0.016
Mof_C 	C 	0.6707	0.2414	0.5404	-0.078
Mof_H 	H 	0.6573	0.2668	0.5473	0.047
Mof_C 	C 	0.6423	0.2077	0.5376	0.027
Mof_C 	C 	0.6522	0.1838	0.5021	-0.052
Mof_H 	H 	0.6316	0.1668	0.4895	0.046
Mof_C 	C 	0.6927	0.1854	0.4852	-0.026
Mof_H 	H 	0.6994	0.1694	0.4613	0.033
Mof_C 	C 	0.7234	0.2107	0.5039	-0.011
Mof_C 	C 	0.7134	0.2346	0.5395	-0.016
Mof_H 	H 	0.734	0.2516	0.552	0.024
Mof_C 	C 	0.6729	0.233	0.5563	-0.019
Mof_H 	H 	0.6662	0.249	0.5802	0.028
Mof_N 	N 	0.45545	0.2784	0.591	-0.283
Mof_C 	C 	0.41507	0.26565	0.5822	0.077
Mof_H 	H 	0.4026	0.2404	0.591	-0.022
Mof_N 	N 	0.39624	0.2964	0.5584	-0.133
Mof_C 	C 	0.425	0.3281	0.5524	0.004
Mof_H 	H 	0.4204	0.353	0.5372	0.023
Mof_C 	C 	0.46157	0.317	0.5725	-0.009
Mof_H 	H 	0.4863	0.333	0.5735	0.001
Mof_C 	C 	0.3501	0.2968	0.5468	0.055
Mof_C 	C 	0.3302	0.3346	0.5365	-0.067
Mof_H 	H 	0.3441	0.3603	0.5408	0.052
Mof_C 	C 	0.2895	0.3342	0.5198	-0.033
Mof_H 	H 	0.2761	0.3596	0.5128	0.028
Mof_C 	C 	0.2688	0.296	0.5134	0.012
Mof_C 	C 	0.2887	0.2581	0.5237	-0.019
Mof_H 	H 	0.2747	0.2325	0.5194	0.016
Mof_C 	C 	0.3293	0.2586	0.5404	-0.078
Mof_H 	H 	0.3427	0.2332	0.5473	0.047
Mof_C 	C 	0.3577	0.2923	0.5376	0.027
Mof_C 	C 	0.3478	0.3162	0.5021	-0.052
Mof_H 	H 	0.3684	0.3332	0.4895	0.046
Mof_C 	C 	0.3073	0.3146	0.4852	-0.025
Mof_H 	H 	0.3006	0.3306	0.4613	0.033
Mof_C 	C 	0.2766	0.2893	0.5039	-0.011
Mof_C 	C 	0.2866	0.2654	0.5395	-0.016
Mof_H 	H 	0.266	0.2484	0.552	0.024
Mof_C 	C 	0.3271	0.267	0.5563	-0.019
Mof_H 	H 	0.3338	0.251	0.5802	0.028
Mof_N 	N 	0.95545	0.7784	0.091	-0.28
Mof_C 	C 	0.91507	0.76565	0.0822	0.078
Mof_H 	H 	0.9026	0.7404	0.091	-0.022
Mof_N 	N 	0.89624	0.7964	0.0584	-0.135
Mof_C 	C 	0.925	0.8281	0.0524	0.004
Mof_H 	H 	0.9204	0.853	0.0372	0.022
Mof_C 	C 	0.96157	0.817	0.0725	-0.009
Mof_H 	H 	0.9863	0.833	0.0735	0.005
Mof_C 	C 	0.8501	0.7968	0.0468	0.075
Mof_C 	C 	0.8302	0.8346	0.0365	-0.039
Mof_H 	H 	0.8441	0.8603	0.0408	0.041
Mof_C 	C 	0.7895	0.8342	0.0198	-0.058
Mof_H 	H 	0.7761	0.8596	0.0128	0.035
Mof_C 	C 	0.7688	0.796	0.0134	-0.033
Mof_C 	C 	0.7887	0.7581	0.0237	-0.002
Mof_H 	H 	0.7747	0.7325	0.0194	0.006
Mof_C 	C 	0.8293	0.7586	0.0404	-0.084
Mof_H 	H 	0.8427	0.7332	0.0473	0.049
Mof_C 	C 	0.8577	0.7923	0.0376	0.019
Mof_C 	C 	0.8478	0.8162	0.0021	-0.121
Mof_H 	H 	0.8684	0.8332	0.9895	0.079
Mof_C 	C 	0.8073	0.8146	0.9852	0.035
Mof_H 	H 	0.8006	0.8306	0.9613	0.013
Mof_C 	C 	0.7766	0.7893	0.0039	0.004
Mof_C 	C 	0.7866	0.7654	0.0395	-0.021
Mof_H 	H 	0.766	0.7484	0.052	0.026
Mof_C 	C 	0.8271	0.767	0.0563	-0.024
Mof_H 	H 	0.8338	0.751	0.0802	0.03
Mof_Zn	Zn	-9.19079e-33	0.75	0.125	1.17
Mof_Zn	Zn	0.5	0.25	0.625	1.173
Mof_Zn	Zn	4.62585e-33	0.25	0.375	1.17
Mof_Zn	Zn	0.5	0.75	0.875	1.173
Mof_N 	N 	0.159	0.9716	0.70545	-0.283
Mof_C 	C 	0.1678	0.98435	0.66507	0.099
Mof_H 	H 	0.159	0.0096	0.6526	-0.037
Mof_N 	N 	0.1916	0.9536	0.64624	-0.136
Mof_C 	C 	0.1976	0.9219	0.675	0.004
Mof_H 	H 	0.2128	0.897	0.6704	0.023
Mof_C 	C 	0.1775	0.933	0.71157	-0.009
Mof_H 	H 	0.1765	0.917	0.7363	0.001
Mof_C 	C 	0.2032	0.9532	0.6001	0.061
Mof_C 	C 	0.2135	0.9154	0.5802	-0.073
Mof_H 	H 	0.2092	0.8897	0.5941	0.054
Mof_C 	C 	0.2302	0.9158	0.5395	-0.031
Mof_H 	H 	0.2372	0.8904	0.5261	0.028
Mof_C 	C 	0.2366	0.954	0.5188	0.013
Mof_C 	C 	0.2263	0.9919	0.5387	-0.018
Mof_H 	H 	0.2306	0.0175	0.5247	0.011
Mof_C 	C 	0.2096	0.9914	0.5793	-0.095
Mof_H 	H 	0.2027	0.0168	0.5927	0.044
Mof_C 	C 	0.2124	0.9577	0.6077	0.023
Mof_C 	C 	0.2479	0.9338	0.5978	-0.046
Mof_H 	H 	0.2605	0.9168	0.6184	0.045
Mof_C 	C 	0.2648	0.9354	0.5573	-0.024
Mof_H 	H 	0.2887	0.9194	0.5506	0.034
Mof_C 	C 	0.2461	0.9607	0.5266	-0.014
Mof_C 	C 	0.2105	0.9846	0.5366	0.007
Mof_H 	H 	0.198	0.0016	0.516	0.01
Mof_C 	C 	0.1937	0.983	0.5771	-0.001
Mof_H 	H 	0.1698	0.999	0.5838	0.029
Mof_N 	N 	0.659	0.4716	0.20545	-0.283
Mof_C 	C 	0.6678	0.48435	0.16507	0.077
Mof_H 	H 	0.659	0.5096	0.1526	-0.022
Mof_N 	N 	0.6916	0.4536	0.14624	-0.134
Mof_C 	C 	0.6976	0.4219	0.175	0.004
Mof_H 	H 	0.7128	0.397	0.1704	0.023
Mof_C 	C 	0.6775	0.433	0.21157	-0.01
Mof_H 	H 	0.6765	0.417	0.2363	0.001
Mof_C 	C 	0.7032	0.4532	0.1001	0.056
Mof_C 	C 	0.7135	0.4154	0.0802	-0.068
Mof_H 	H 	0.7092	0.3897	0.0941	0.052
Mof_C 	C 	0.7302	0.4158	0.0395	-0.032
Mof_H 	H 	0.7372	0.3904	0.0261	0.024
Mof_C 	C 	0.7366	0.454	0.0188	0.008
Mof_C 	C 	0.7263	0.4919	0.0387	-0.018
Mof_H 	H 	0.7306	0.5175	0.0247	0.012
Mof_C 	C 	0.7096	0.4914	0.0793	-0.08
Mof_H 	H 	0.7027	0.5168	0.0927	0.048
Mof_C 	C 	0.7124	0.4577	0.1077	0.028
Mof_C 	C 	0.7479	0.4338	0.0978	-0.055
Mof_H 	H 	0.7605	0.4168	0.1184	0.047
Mof_C 	C 	0.7648	0.4354	0.0573	-0.02
Mof_H 	H 	0.7887	0.4194	0.0506	0.029
Mof_C 	C 	0.7461	0.4607	0.0266	-0.02
Mof_C 	C 	0.7105	0.4846	0.0366	-0.01
Mof_H 	H 	0.698	0.5016	0.016	0.019
Mof_C 	C 	0.6937	0.483	0.0771	-0.02
Mof_H 	H 	0.6698	0.499	0.0838	0.028
Mof_N 	N 	0.659	0.5284	0.29455	-0.283
Mof_C 	C 	0.6678	0.51565	0.33493	0.077
Mof_H 	H 	0.659	0.4904	0.3474	-0.022
Mof_N 	N 	0.6916	0.5464	0.35376	-0.133
Mof_C 	C 	0.6976	0.5781	0.325	0.004
Mof_H 	H 	0.7128	0.603	0.3296	0.023
Mof_C 	C 	0.6775	0.567	0.28843	-0.009
Mof_H 	H 	0.6765	0.583	0.2637	0.001
Mof_C 	C 	0.7032	0.5468	0.3999	0.055
Mof_C 	C 	0.7135	0.5846	0.4198	-0.067
Mof_H 	H 	0.7092	0.6103	0.4059	0.052
Mof_C 	C 	0.7302	0.5842	0.4605	-0.033
Mof_H 	H 	0.7372	0.6096	0.4739	0.028
Mof_C 	C 	0.7366	0.546	0.4812	0.012
Mof_C 	C 	0.7263	0.5081	0.4613	-0.019
Mof_H 	H 	0.7306	0.4825	0.4753	0.016
Mof_C 	C 	0.7096	0.5086	0.4207	-0.078
Mof_H 	H 	0.7027	0.4832	0.4073	0.047
Mof_C 	C 	0.7124	0.5423	0.3923	0.027
Mof_C 	C 	0.7479	0.5662	0.4022	-0.052
Mof_H 	H 	0.7605	0.5832	0.3816	0.046
Mof_C 	C 	0.7648	0.5646	0.4427	-0.025
Mof_H 	H 	0.7887	0.5806	0.4494	0.033
Mof_C 	C 	0.7461	0.5393	0.4734	-0.011
Mof_C 	C 	0.7105	0.5154	0.4634	-0.016
Mof_H 	H 	0.698	0.4984	0.484	0.024
Mof_C 	C 	0.6937	0.517	0.4229	-0.019
Mof_H 	H 	0.6698	0.501	0.4162	0.028
Mof_N 	N 	0.159	0.0284	0.79455	-0.281
Mof_C 	C 	0.1678	0.01565	0.83493	0.056
Mof_H 	H 	0.159	0.9904	0.8474	-0.007
Mof_N 	N 	0.1916	0.0464	0.85376	-0.13
Mof_C 	C 	0.1976	0.0781	0.825	0.003
Mof_H 	H 	0.2128	0.103	0.8296	0.024
Mof_C 	C 	0.1775	0.067	0.78843	-0.01
Mof_H 	H 	0.1765	0.083	0.7637	0.001
Mof_C 	C 	0.2032	0.0468	0.8999	0.048
Mof_C 	C 	0.2135	0.0846	0.9198	-0.059
Mof_H 	H 	0.2092	0.1103	0.9059	0.049
Mof_C 	C 	0.2302	0.0842	0.9605	-0.036
Mof_H 	H 	0.2372	0.1096	0.9739	0.033
Mof_C 	C 	0.2366	0.046	0.9812	0.014
Mof_C 	C 	0.2263	0.0081	0.9613	-0.022
Mof_H 	H 	0.2306	0.9825	0.9753	0.024
Mof_C 	C 	0.2096	0.0086	0.9207	-0.058
Mof_H 	H 	0.2027	0.9832	0.9073	0.049
Mof_C 	C 	0.2124	0.0423	0.8923	0.031
Mof_C 	C 	0.2479	0.0662	0.9022	-0.055
Mof_H 	H 	0.2605	0.0832	0.8816	0.047
Mof_C 	C 	0.2648	0.0646	0.9427	-0.032
Mof_H 	H 	0.2887	0.0806	0.9494	0.037
Mof_C 	C 	0.2461	0.0393	0.9734	0.002
Mof_C 	C 	0.2105	0.0154	0.9634	-0.044
Mof_H 	H 	0.198	0.9984	0.984	0.044
Mof_C 	C 	0.1937	0.017	0.9229	-0.035
Mof_H 	H 	0.1698	0.001	0.9162	0.027
Mof_N 	N 	0.341	0.0284	0.20545	-0.281
Mof_C 	C 	0.3322	0.01565	0.16507	0.056
Mof_H 	H 	0.341	0.9904	0.1526	-0.007
Mof_N 	N 	0.3084	0.0464	0.14624	-0.131
Mof_C 	C 	0.3024	0.0781	0.175	0.003
Mof_H 	H 	0.2872	0.103	0.1704	0.023
Mof_C 	C 	0.3225	0.067	0.21157	-0.01
Mof_H 	H 	0.3235	0.083	0.2363	0.001
Mof_C 	C 	0.2968	0.0468	0.1001	0.05
Mof_C 	C 	0.2865	0.0846	0.0802	-0.061
Mof_H 	H 	0.2908	0.1103	0.0941	0.05
Mof_C 	C 	0.2698	0.0842	0.0395	-0.033
Mof_H 	H 	0.2628	0.1096	0.0261	0.025
Mof_C 	C 	0.2634	0.046	0.0188	0.007
Mof_C 	C 	0.2737	0.0081	0.0387	-0.02
Mof_H 	H 	0.2694	0.9825	0.0247	0.017
Mof_C 	C 	0.2904	0.0086	0.0793	-0.063
Mof_H 	H 	0.2973	0.9832	0.0927	0.051
Mof_C 	C 	0.2876	0.0423	0.1077	0.032
Mof_C 	C 	0.2521	0.0662	0.0978	-0.061
Mof_H 	H 	0.2395	0.0832	0.1184	0.048
Mof_C 	C 	0.2352	0.0646	0.0573	-0.021
Mof_H 	H 	0.2113	0.0806	0.0506	0.028
Mof_C 	C 	0.2539	0.0393	0.0266	-0.017
Mof_C 	C 	0.2895	0.0154	0.0366	-0.032
Mof_H 	H 	0.302	0.9984	0.016	0.033
Mof_C 	C 	0.3063	0.017	0.0771	-0.039
Mof_H 	H 	0.3302	0.001	0.0838	0.027
Mof_N 	N 	0.841	0.5284	0.70545	-0.282
Mof_C 	C 	0.8322	0.51565	0.66507	0.078
Mof_H 	H 	0.841	0.4904	0.6526	-0.022
Mof_N 	N 	0.8084	0.5464	0.64624	-0.133
Mof_C 	C 	0.8024	0.5781	0.675	0.004
Mof_H 	H 	0.7872	0.603	0.6704	0.023
Mof_C 	C 	0.8225	0.567	0.71157	-0.009
Mof_H 	H 	0.8235	0.583	0.7363	0.001
Mof_C 	C 	0.7968	0.5468	0.6001	0.055
Mof_C 	C 	0.7865	0.5846	0.5802	-0.066
Mof_H 	H 	0.7908	0.6103	0.5941	0.052
Mof_C 	C 	0.7698	0.5842	0.5395	-0.033
Mof_H 	H 	0.7628	0.6096	0.5261	0.028
Mof_C 	C 	0.7634	0.546	0.5188	0.011
Mof_C 	C 	0.7737	0.5081	0.5387	-0.019
Mof_H 	H 	0.7694	0.4825	0.5247	0.015
Mof_C 	C 	0.7904	0.5086	0.5793	-0.077
Mof_H 	H 	0.7973	0.4832	0.5927	0.047
Mof_C 	C 	0.7876	0.5423	0.6077	0.027
Mof_C 	C 	0.7521	0.5662	0.5978	-0.052
Mof_H 	H 	0.7395	0.5832	0.6184	0.046
Mof_C 	C 	0.7352	0.5646	0.5573	-0.026
Mof_H 	H 	0.7113	0.5806	0.5506	0.033
Mof_C 	C 	0.7539	0.5393	0.5266	-0.01
Mof_C 	C 	0.7895	0.5154	0.5366	-0.016
Mof_H 	H 	0.802	0.4984	0.516	0.025
Mof_C 	C 	0.8063	0.517	0.5771	-0.019
Mof_H 	H 	0.8302	0.501	0.5838	0.029
Mof_N 	N 	0.841	0.4716	0.79455	-0.282
Mof_C 	C 	0.8322	0.48435	0.83493	0.078
Mof_H 	H 	0.841	0.5096	0.8474	-0.021
Mof_N 	N 	0.8084	0.4536	0.85376	-0.133
Mof_C 	C 	0.8024	0.4219	0.825	0.004
Mof_H 	H 	0.7872	0.397	0.8296	0.023
Mof_C 	C 	0.8225	0.433	0.78843	-0.009
Mof_H 	H 	0.8235	0.417	0.7637	0.001
Mof_C 	C 	0.7968	0.4532	0.8999	0.053
Mof_C 	C 	0.7865	0.4154	0.9198	-0.065
Mof_H 	H 	0.7908	0.3897	0.9059	0.051
Mof_C 	C 	0.7698	0.4158	0.9605	-0.034
Mof_H 	H 	0.7628	0.3904	0.9739	0.033
Mof_C 	C 	0.7634	0.454	0.9812	0.015
Mof_C 	C 	0.7737	0.4919	0.9613	-0.02
Mof_H 	H 	0.7694	0.5175	0.9753	0.019
Mof_C 	C 	0.7904	0.4914	0.9207	-0.075
Mof_H 	H 	0.7973	0.5168	0.9073	0.046
Mof_C 	C 	0.7876	0.4577	0.8923	0.027
Mof_C 	C 	0.7521	0.4338	0.9022	-0.049
Mof_H 	H 	0.7395	0.4168	0.8816	0.045
Mof_C 	C 	0.7352	0.4354	0.9427	-0.031
Mof_H 	H 	0.7113	0.4194	0.9494	0.037
Mof_C 	C 	0.7539	0.4607	0.9734	-0.001
Mof_C 	C 	0.7895	0.4846	0.9634	-0.022
Mof_H 	H 	0.802	0.5016	0.984	0.03
Mof_C 	C 	0.8063	0.483	0.9229	-0.018
Mof_H 	H 	0.8302	0.499	0.9162	0.029
Mof_N 	N 	0.341	0.9716	0.29455	-0.283
Mof_C 	C 	0.3322	0.98435	0.33493	0.099
Mof_H 	H 	0.341	0.0096	0.3474	-0.036
Mof_N 	N 	0.3084	0.9536	0.35376	-0.136
Mof_C 	C 	0.3024	0.9219	0.325	0.004
Mof_H 	H 	0.2872	0.897	0.3296	0.023
Mof_C 	C 	0.3225	0.933	0.28843	-0.009
Mof_H 	H 	0.3235	0.917	0.2637	0.001
Mof_C 	C 	0.2968	0.9532	0.3999	0.061
Mof_C 	C 	0.2865	0.9154	0.4198	-0.073
Mof_H 	H 	0.2908	0.8897	0.4059	0.054
Mof_C 	C 	0.2698	0.9158	0.4605	-0.031
Mof_H 	H 	0.2628	0.8904	0.4739	0.027
Mof_C 	C 	0.2634	0.954	0.4812	0.012
Mof_C 	C 	0.2737	0.9919	0.4613	-0.017
Mof_H 	H 	0.2694	0.0175	0.4753	0.01
Mof_C 	C 	0.2904	0.9914	0.4207	-0.095
Mof_H 	H 	0.2973	0.0168	0.4073	0.044
Mof_C 	C 	0.2876	0.9577	0.3923	0.023
Mof_C 	C 	0.2521	0.9338	0.4022	-0.046
Mof_H 	H 	0.2395	0.9168	0.3816	0.045
Mof_C 	C 	0.2352	0.9354	0.4427	-0.025
Mof_H 	H 	0.2113	0.9194	0.4494	0.033
Mof_C 	C 	0.2539	0.9607	0.4734	-0.014
Mof_C 	C 	0.2895	0.9846	0.4634	0.006
Mof_H 	H 	0.302	0.0016	0.484	0.01
Mof_C 	C 	0.3063	0.983	0.4229	-0.001
Mof_H 	H 	0.3302	0.999	0.4162	0.029
Mof_N 	N 	0.091	0.04455	0.7216	-0.284
Mof_C 	C 	0.0822	0.08493	0.73435	0.077
Mof_H 	H 	0.091	0.0974	0.7596	-0.022
Mof_N 	N 	0.0584	0.10376	0.7036	-0.135
Mof_C 	C 	0.0524	0.075	0.6719	0.002
Mof_H 	H 	0.0372	0.0796	0.647	0.02
Mof_C 	C 	0.0725	0.03843	0.683	-0.011
Mof_H 	H 	0.0735	0.0137	0.667	-0.003
Mof_C 	C 	0.0468	0.1499	0.7032	0.075
Mof_C 	C 	0.0365	0.1698	0.6654	-0.039
Mof_H 	H 	0.0408	0.1559	0.6397	0.04
Mof_C 	C 	0.0198	0.2105	0.6658	-0.058
Mof_H 	H 	0.0128	0.2239	0.6404	0.034
Mof_C 	C 	0.0134	0.2312	0.704	-0.033
Mof_C 	C 	0.0237	0.2113	0.7419	-0.002
Mof_H 	H 	0.0194	0.2253	0.7675	0.006
Mof_C 	C 	0.0404	0.1707	0.7414	-0.084
Mof_H 	H 	0.0473	0.1573	0.7668	0.048
Mof_C 	C 	0.0376	0.1423	0.7077	0.019
Mof_C 	C 	0.0021	0.1522	0.6838	-0.12
Mof_H 	H 	0.9895	0.1316	0.6668	0.078
Mof_C 	C 	0.9852	0.1927	0.6854	0.035
Mof_H 	H 	0.9613	0.1994	0.6694	0.013
Mof_C 	C 	0.0039	0.2234	0.7107	0.004
Mof_C 	C 	0.0395	0.2134	0.7346	-0.021
Mof_H 	H 	0.052	0.234	0.7516	0.026
Mof_C 	C 	0.0563	0.1729	0.733	-0.024
Mof_H 	H 	0.0802	0.1662	0.749	0.03
Mof_N 	N 	0.591	0.54455	0.2216	-0.283
Mof_C 	C 	0.5822	0.58493	0.23435	0.077
Mof_H 	H 	0.591	0.5974	0.2596	-0.022
Mof_N 	N 	0.5584	0.60376	0.2036	-0.133
Mof_C 	C 	0.5524	0.575	0.1719	0.004
Mof_H 	H 	0.5372	0.5796	0.147	0.023
Mof_C 	C 	0.5725	0.53843	0.183	-0.01
Mof_H 	H 	0.5735	0.5137	0.167	0.001
Mof_C 	C 	0.5468	0.6499	0.2032	0.055
Mof_C 	C 	0.5365	0.6698	0.1654	-0.067
Mof_H 	H 	0.5408	0.6559	0.1397	0.051
Mof_C 	C 	0.5198	0.7105	0.1658	-0.033
Mof_H 	H 	0.5128	0.7239	0.1404	0.028
Mof_C 	C 	0.5134	0.7312	0.204	0.012
Mof_C 	C 	0.5237	0.7113	0.2419	-0.019
Mof_H 	H 	0.5194	0.7253	0.2675	0.016
Mof_C 	C 	0.5404	0.6707	0.2414	-0.078
Mof_H 	H 	0.5473	0.6573	0.2668	0.047
Mof_C 	C 	0.5376	0.6423	0.2077	0.027
Mof_C 	C 	0.5021	0.6522	0.1838	-0.052
Mof_H 	H 	0.4895	0.6316	0.1668	0.046
Mof_C 	C 	0.4852	0.6927	0.1854	-0.026
Mof_H 	H 	0.4613	0.6994	0.1694	0.033
Mof_C 	C 	0.5039	0.7234	0.2107	-0.011
Mof_C 	C 	0.5395	0.7134	0.2346	-0.016
Mof_H 	H 	0.552	0.734	0.2516	0.024
Mof_C 	C 	0.5563	0.6729	0.233	-0.019
Mof_H 	H 	0.5802	0.6662	0.249	0.028
Mof_N 	N 	0.591	0.45545	0.2784	-0.283
Mof_C 	C 	0.5822	0.41507	0.26565	0.077
Mof_H 	H 	0.591	0.4026	0.2404	-0.022
Mof_N 	N 	0.5584	0.39624	0.2964	-0.133
Mof_C 	C 	0.5524	0.425	0.3281	0.004
Mof_H 	H 	0.5372	0.4204	0.353	0.023
Mof_C 	C 	0.5725	0.46157	0.317	-0.009
Mof_H 	H 	0.5735	0.4863	0.333	0.001
Mof_C 	C 	0.5468	0.3501	0.2968	0.055
Mof_C 	C 	0.5365	0.3302	0.3346	-0.067
Mof_H 	H 	0.5408	0.3441	0.3603	0.052
Mof_C 	C 	0.5198	0.2895	0.3342	-0.033
Mof_H 	H 	0.5128	0.2761	0.3596	0.028
Mof_C 	C 	0.5134	0.2688	0.296	0.012
Mof_C 	C 	0.5237	0.2887	0.2581	-0.019
Mof_H 	H 	0.5194	0.2747	0.2325	0.016
Mof_C 	C 	0.5404	0.3293	0.2586	-0.078
Mof_H 	H 	0.5473	0.3427	0.2332	0.047
Mof_C 	C 	0.5376	0.3577	0.2923	0.027
Mof_C 	C 	0.5021	0.3478	0.3162	-0.052
Mof_H 	H 	0.4895	0.3684	0.3332	0.046
Mof_C 	C 	0.4852	0.3073	0.3146	-0.025
Mof_H 	H 	0.4613	0.3006	0.3306	0.033
Mof_C 	C 	0.5039	0.2766	0.2893	-0.011
Mof_C 	C 	0.5395	0.2866	0.2654	-0.016
Mof_H 	H 	0.552	0.266	0.2484	0.024
Mof_C 	C 	0.5563	0.3271	0.267	-0.019
Mof_H 	H 	0.5802	0.3338	0.251	0.028
Mof_N 	N 	0.091	0.95545	0.7784	-0.28
Mof_C 	C 	0.0822	0.91507	0.76565	0.078
Mof_H 	H 	0.091	0.9026	0.7404	-0.022
Mof_N 	N 	0.0584	0.89624	0.7964	-0.135
Mof_C 	C 	0.0524	0.925	0.8281	0.004
Mof_H 	H 	0.0372	0.9204	0.853	0.022
Mof_C 	C 	0.0725	0.96157	0.817	-0.009
Mof_H 	H 	0.0735	0.9863	0.833	0.005
Mof_C 	C 	0.0468	0.8501	0.7968	0.075
Mof_C 	C 	0.0365	0.8302	0.8346	-0.039
Mof_H 	H 	0.0408	0.8441	0.8603	0.041
Mof_C 	C 	0.0198	0.7895	0.8342	-0.058
Mof_H 	H 	0.0128	0.7761	0.8596	0.035
Mof_C 	C 	0.0134	0.7688	0.796	-0.033
Mof_C 	C 	0.0237	0.7887	0.7581	-0.002
Mof_H 	H 	0.0194	0.7747	0.7325	0.006
Mof_C 	C 	0.0404	0.8293	0.7586	-0.084
Mof_H 	H 	0.0473	0.8427	0.7332	0.049
Mof_C 	C 	0.0376	0.8577	0.7923	0.019
Mof_C 	C 	0.0021	0.8478	0.8162	-0.121
Mof_H 	H 	0.9895	0.8684	0.8332	0.079
Mof_C 	C 	0.9852	0.8073	0.8146	0.035
Mof_H 	H 	0.9613	0.8006	0.8306	0.013
Mof_C 	C 	0.0039	0.7766	0.7893	0.004
Mof_C 	C 	0.0395	0.7866	0.7654	-0.021
Mof_H 	H 	0.052	0.766	0.7484	0.026
Mof_C 	C 	0.0563	0.8271	0.767	-0.024
Mof_H 	H 	0.0802	0.8338	0.751	0.03
Mof_N 	N 	0.909	0.54455	0.7784	-0.283
Mof_C 	C 	0.9178	0.58493	0.76565	0.078
Mof_H 	H 	0.909	0.5974	0.7404	-0.021
Mof_N 	N 	0.9416	0.60376	0.7964	-0.132
Mof_C 	C 	0.9476	0.575	0.8281	0.004
Mof_H 	H 	0.9628	0.5796	0.853	0.027
Mof_C 	C 	0.9275	0.53843	0.817	-0.009
Mof_H 	H 	0.9265	0.5137	0.833	0.002
Mof_C 	C 	0.9532	0.6499	0.7968	0.034
Mof_C 	C 	0.9635	0.6698	0.8346	-0.094
Mof_H 	H 	0.9592	0.6559	0.8603	0.063
Mof_C 	C 	0.9802	0.7105	0.8342	-0.008
Mof_H 	H 	0.9872	0.7239	0.8596	0.023
Mof_C 	C 	0.9866	0.7312	0.796	0.057
Mof_C 	C 	0.9763	0.7113	0.7581	-0.037
Mof_H 	H 	0.9806	0.7253	0.7325	0.026
Mof_C 	C 	0.9596	0.6707	0.7586	-0.072
Mof_H 	H 	0.9527	0.6573	0.7332	0.046
Mof_C 	C 	0.9624	0.6423	0.7923	0.036
Mof_C 	C 	0.9979	0.6522	0.8162	0.017
Mof_H 	H 	0.0105	0.6316	0.8332	0.014
Mof_C 	C 	0.0148	0.6927	0.8146	-0.086
Mof_H 	H 	0.0387	0.6994	0.8306	0.053
Mof_C 	C 	0.9961	0.7234	0.7893	-0.026
Mof_C 	C 	0.9605	0.7134	0.7654	-0.011
Mof_H 	H 	0.948	0.734	0.7484	0.023
Mof_C 	C 	0.9437	0.6729	0.767	-0.014
Mof_H 	H 	0.9198	0.6662	0.751	0.026
Mof_N 	N 	0.409	0.04455	0.2784	-0.284
Mof_C 	C 	0.4178	0.08493	0.26565	0.077
Mof_H 	H 	0.409	0.0974	0.2404	-0.022
Mof_N 	N 	0.4416	0.10376	0.2964	-0.133
Mof_C 	C 	0.4476	0.075	0.3281	0.003
Mof_H 	H 	0.4628	0.0796	0.353	0.022
Mof_C 	C 	0.4275	0.03843	0.317	-0.01
Mof_H 	H 	0.4265	0.0137	0.333	-0.003
Mof_C 	C 	0.4532	0.1499	0.2968	0.055
Mof_C 	C 	0.4635	0.1698	0.3346	-0.066
Mof_H 	H 	0.4592	0.1559	0.3603	0.051
Mof_C 	C 	0.4802	0.2105	0.3342	-0.033
Mof_H 	H 	0.4872	0.2239	0.3596	0.028
Mof_C 	C 	0.4866	0.2312	0.296	0.012
Mof_C 	C 	0.4763	0.2113	0.2581	-0.019
Mof_H 	H 	0.4806	0.2253	0.2325	0.016
Mof_C 	C 	0.4596	0.1707	0.2586	-0.078
Mof_H 	H 	0.4527	0.1573	0.2332	0.047
Mof_C 	C 	0.4624	0.1423	0.2923	0.027
Mof_C 	C 	0.4979	0.1522	0.3162	-0.052
Mof_H 	H 	0.5105	0.1316	0.3332	0.046
Mof_C 	C 	0.5148	0.1927	0.3146	-0.026
Mof_H 	H 	0.5387	0.1994	0.3306	0.033
Mof_C 	C 	0.4961	0.2234	0.2893	-0.011
Mof_C 	C 	0.4605	0.2134	0.2654	-0.016
Mof_H 	H 	0.448	0.234	0.2484	0.024
Mof_C 	C 	0.4437	0.1729	0.267	-0.019
Mof_H 	H 	0.4198	0.1662	0.251	0.028
Mof_N 	N 	0.409	0.95545	0.2216	-0.28
Mof_C 	C 	0.4178	0.91507	0.23435	0.078
Mof_H 	H 	0.409	0.9026	0.2596	-0.021
Mof_N 	N 	0.4416	0.89624	0.2036	-0.133
Mof_C 	C 	0.4476	0.925	0.1719	0.005
Mof_H 	H 	0.4628	0.9204	0.147	0.024
Mof_C 	C 	0.4275	0.96157	0.183	-0.009
Mof_H 	H 	0.4265	0.9863	0.167	0.005
Mof_C 	C 	0.4532	0.8501	0.2032	0.055
Mof_C 	C 	0.4635	0.8302	0.1654	-0.067
Mof_H 	H 	0.4592	0.8441	0.1397	0.052
Mof_C 	C 	0.4802	0.7895	0.1658	-0.033
Mof_H 	H 	0.4872	0.7761	0.1404	0.028
Mof_C 	C 	0.4866	0.7688	0.204	0.012
Mof_C 	C 	0.4763	0.7887	0.2419	-0.019
Mof_H 	H 	0.4806	0.7747	0.2675	0.016
Mof_C 	C 	0.4596	0.8293	0.2414	-0.078
Mof_H 	H 	0.4527	0.8427	0.2668	0.047
Mof_C 	C 	0.4624	0.8577	0.2077	0.027
Mof_C 	C 	0.4979	0.8478	0.1838	-0.052
Mof_H 	H 	0.5105	0.8684	0.1668	0.046
Mof_C 	C 	0.5148	0.8073	0.1854	-0.026
Mof_H 	H 	0.5387	0.8006	0.1694	0.033
Mof_C 	C 	0.4961	0.7766	0.2107	-0.011
Mof_C 	C 	0.4605	0.7866	0.2346	-0.016
Mof_H 	H 	0.448	0.766	0.2516	0.024
Mof_C 	C 	0.4437	0.8271	0.233	-0.019
Mof_H 	H 	0.4198	0.8338	0.249	0.028
Mof_N 	N 	0.909	0.45545	0.7216	-0.283
Mof_C 	C 	0.9178	0.41507	0.73435	0.078
Mof_H 	H 	0.909	0.4026	0.7596	-0.021
Mof_N 	N 	0.9416	0.39624	0.7036	-0.132
Mof_C 	C 	0.9476	0.425	0.6719	0.004
Mof_H 	H 	0.9628	0.4204	0.647	0.026
Mof_C 	C 	0.9275	0.46157	0.683	-0.009
Mof_H 	H 	0.9265	0.4863	0.667	0.002
Mof_C 	C 	0.9532	0.3501	0.7032	0.034
Mof_C 	C 	0.9635	0.3302	0.6654	-0.094
Mof_H 	H 	0.9592	0.3441	0.6397	0.063
Mof_C 	C 	0.9802	0.2895	0.6658	-0.008
Mof_H 	H 	0.9872	0.2761	0.6404	0.022
Mof_C 	C 	0.9866	0.2688	0.704	0.057
Mof_C 	C 	0.9763	0.2887	0.7419	-0.037
Mof_H 	H 	0.9806	0.2747	0.7675	0.026
Mof_C 	C 	0.9596	0.3293	0.7414	-0.072
Mof_H 	H 	0.9527	0.3427	0.7668	0.046
Mof_C 	C 	0.9624	0.3577	0.7077	0.036
Mof_C 	C 	0.9979	0.3478	0.6838	0.017
Mof_H 	H 	0.0105	0.3684	0.6668	0.014
Mof_C 	C 	0.0148	0.3073	0.6854	-0.086
Mof_H 	H 	0.0387	0.3006	0.6694	0.053
Mof_C 	C 	0.9961	0.2766	0.7107	-0.026
Mof_C 	C 	0.9605	0.2866	0.7346	-0.011
Mof_H 	H 	0.948	0.266	0.7516	0.023
Mof_C 	C 	0.9437	0.3271	0.733	-0.014
Mof_H 	H 	0.9198	0.3338	0.749	0.026
Mof_Zn	Zn	0.125	0	0.75	1.17
Mof_Zn	Zn	0.625	0.5	0.25	1.173
Mof_Zn	Zn	0.375	0	0.25	1.17
Mof_Zn	Zn	0.875	0.5	0.75	1.173
Mof_N 	N 	0.70545	0.159	0.9716	-0.283
Mof_C 	C 	0.66507	0.1678	0.98435	0.099
Mof_H 	H 	0.6526	0.159	0.0096	-0.037
Mof_N 	N 	0.64624	0.1916	0.9536	-0.136
Mof_C 	C 	0.675	0.1976	0.9219	0.004
Mof_H 	H 	0.6704	0.2128	0.897	0.023
Mof_C 	C 	0.71157	0.1775	0.933	-0.009
Mof_H 	H 	0.7363	0.1765	0.917	0.001
Mof_C 	C 	0.6001	0.2032	0.9532	0.061
Mof_C 	C 	0.5802	0.2135	0.9154	-0.073
Mof_H 	H 	0.5941	0.2092	0.8897	0.054
Mof_C 	C 	0.5395	0.2302	0.9158	-0.031
Mof_H 	H 	0.5261	0.2372	0.8904	0.028
Mof_C 	C 	0.5188	0.2366	0.954	0.013
Mof_C 	C 	0.5387	0.2263	0.9919	-0.018
Mof_H 	H 	0.5247	0.2306	0.0175	0.011
Mof_C 	C 	0.5793	0.2096	0.9914	-0.095
Mof_H 	H 	0.5927	0.2027	0.0168	0.044
Mof_C 	C 	0.6077	0.2124	0.9577	0.023
Mof_C 	C 	0.5978	0.2479	0.9338	-0.046
Mof_H 	H 	0.6184	0.2605	0.9168	0.045
Mof_C 	C 	0.5573	0.2648	0.9354	-0.024
Mof_H 	H 	0.5506	0.2887	0.9194	0.034
Mof_C 	C 	0.5266	0.2461	0.9607	-0.014
Mof_C 	C 	0.5366	0.2105	0.9846	0.007
Mof_H 	H 	0.516	0.198	0.0016	0.01
Mof_C 	C 	0.5771	0.1937	0.983	-0.001
Mof_H 	H 	0.5838	0.1698	0.999	0.029
Mof_N 	N 	0.20545	0.659	0.4716	-0.283
Mof_C 	C 	0.16507	0.6678	0.48435	0.077
Mof_H 	H 	0.1526	0.659	0.5096	-0.022
Mof_N 	N 	0.14624	0.6916	0.4536	-0.134
Mof_C 	C 	0.175	0.6976	0.4219	0.004
Mof_H 	H 	0.1704	0.7128	0.397	0.023
Mof_C 	C 	0.21157	0.6775	0.433	-0.01
Mof_H 	H 	0.2363	0.6765	0.417	0.001
Mof_C 	C 	0.1001	0.7032	0.4532	0.056
Mof_C 	C 	0.0802	0.7135	0.4154	-0.068
Mof_H 	H 	0.0941	0.7092	0.3897	0.052
Mof_C 	C 	0.0395	0.7302	0.4158	-0.032
Mof_H 	H 	0.0261	0.7372	0.3904	0.024
Mof_C 	C 	0.0188	0.7366	0.454	0.008
Mof_C 	C 	0.0387	0.7263	0.4919	-0.018
Mof_H 	H 	0.0247	0.7306	0.5175	0.012
Mof_C 	C 	0.0793	0.7096	0.4914	-0.08
Mof_H 	H 	0.0927	0.7027	0.5168	0.048
Mof_C 	C 	0.1077	0.7124	0.4577	0.028
Mof_C 	C 	0.0978	0.7479	0.4338	-0.055
Mof_H 	H 	0.1184	0.7605	0.4168	0.047
Mof_C 	C 	0.0573	0.7648	0.4354	-0.02
Mof_H 	H 	0.0506	0.7887	0.4194	0.029
Mof_C 	C 	0.0266	0.7461	0.4607	-0.02
Mof_C 	C 	0.0366	0.7105	0.4846	-0.01
Mof_H 	H 	0.016	0.698	0.5016	0.019
Mof_C 	C 	0.0771	0.6937	0.483	-0.02
Mof_H 	H 	0.0838	0.6698	0.499	0.028
Mof_N 	N 	0.29455	0.659	0.5284	-0.283
Mof_C 	C 	0.33493	0.6678	0.51565	0.077
Mof_H 	H 	0.3474	0.659	0.4904	-0.022
Mof_N 	N 	0.35376	0.6916	0.5464	-0.133
Mof_C 	C 	0.325	0.6976	0.5781	0.004
Mof_H 	H 	0.3296	0.7128	0.603	0.023
Mof_C 	C 	0.28843	0.6775	0.567	-0.009
Mof_H 	H 	0.2637	0.6765	0.583	0.001
Mof_C 	C 	0.3999	0.7032	0.5468	0.055
Mof_C 	C 	0.4198	0.7135	0.5846	-0.067
Mof_H 	H 	0.4059	0.7092	0.6103	0.052
Mof_C 	C 	0.4605	0.7302	0.5842	-0.033
Mof_H 	H 	0.4739	0.7372	0.6096	0.028
Mof_C 	C 	0.4812	0.7366	0.546	0.012
Mof_C 	C 	0.4613	0.7263	0.5081	-0.019
Mof_H 	H 	0.4753	0.7306	0.4825	0.016
Mof_C 	C 	0.4207	0.7096	0.5086	-0.078
Mof_H 	H 	0.4073	0.7027	0.4832	0.047
Mof_C 	C 	0.3923	0.7124	0.5423	0.027
Mof_C 	C 	0.4022	0.7479	0.5662	-0.052
Mof_H 	H 	0.3816	0.7605	0.5832	0.046
Mof_C 	C 	0.4427	0.7648	0.5646	-0.025
Mof_H 	H 	0.4494	0.7887	0.5806	0.033
Mof_C 	C 	0.4734	0.7461	0.5393	-0.011
Mof_C 	C 	0.4634	0.7105	0.5154	-0.016
Mof_H 	H 	0.484	0.698	0.4984	0.024
Mof_C 	C 	0.4229	0.6937	0.517	-0.019
Mof_H 	H 	0.4162	0.6698	0.501	0.028
Mof_N 	N 	0.79455	0.159	0.0284	-0.281
Mof_C 	C 	0.83493	0.1678	0.01565	0.056
Mof_H 	H 	0.8474	0.159	0.9904	-0.007
Mof_N 	N 	0.85376	0.1916	0.0464	-0.13
Mof_C 	C 	0.825	0.1976	0.0781	0.003
Mof_H 	H 	0.8296	0.2128	0.103	0.024
Mof_C 	C 	0.78843	0.1775	0.067	-0.01
Mof_H 	H 	0.7637	0.1765	0.083	0.001
Mof_C 	C 	0.8999	0.2032	0.0468	0.048
Mof_C 	C 	0.9198	0.2135	0.0846	-0.059
Mof_H 	H 	0.9059	0.2092	0.1103	0.049
Mof_C 	C 	0.9605	0.2302	0.0842	-0.036
Mof_H 	H 	0.9739	0.2372	0.1096	0.033
Mof_C 	C 	0.9812	0.2366	0.046	0.014
Mof_C 	C 	0.9613	0.2263	0.0081	-0.022
Mof_H 	H 	0.9753	0.2306	0.9825	0.024
Mof_C 	C 	0.9207	0.2096	0.0086	-0.058
Mof_H 	H 	0.9073	0.2027	0.9832	0.049
Mof_C 	C 	0.8923	0.2124	0.0423	0.031
Mof_C 	C 	0.9022	0.2479	0.0662	-0.055
Mof_H 	H 	0.8816	0.2605	0.0832	0.047
Mof_C 	C 	0.9427	0.2648	0.0646	-0.032
Mof_H 	H 	0.9494	0.2887	0.0806	0.037
Mof_C 	C 	0.9734	0.2461	0.0393	0.002
Mof_C 	C 	0.9634	0.2105	0.0154	-0.044
Mof_H 	H 	0.984	0.198	0.9984	0.044
Mof_C 	C 	0.9229	0.1937	0.017	-0.035
Mof_H 	H 	0.9162	0.1698	0.001	0.027
Mof_N 	N 	0.20545	0.341	0.0284	-0.281
Mof_C 	C 	0.16507	0.3322	0.01565	0.056
Mof_H 	H 	0.1526	0.341	0.9904	-0.007
Mof_N 	N 	0.14624	0.3084	0.0464	-0.131
Mof_C 	C 	0.175	0.3024	0.0781	0.003
Mof_H 	H 	0.1704	0.2872	0.103	0.023
Mof_C 	C 	0.21157	0.3225	0.067	-0.01
Mof_H 	H 	0.2363	0.3235	0.083	0.001
Mof_C 	C 	0.1001	0.2968	0.0468	0.05
Mof_C 	C 	0.0802	0.2865	0.0846	-0.061
Mof_H 	H 	0.0941	0.2908	0.1103	0.05
Mof_C 	C 	0.0395	0.2698	0.0842	-0.033
Mof_H 	H 	0.0261	0.2628	0.1096	0.025
Mof_C 	C 	0.0188	0.2634	0.046	0.007
Mof_C 	C 	0.0387	0.2737	0.0081	-0.02
Mof_H 	H 	0.0247	0.2694	0.9825	0.017
Mof_C 	C 	0.0793	0.2904	0.0086	-0.063
Mof_H 	H 	0.0927	0.2973	0.9832	0.051
Mof_C 	C 	0.1077	0.2876	0.0423	0.032
Mof_C 	C 	0.0978	0.2521	0.0662	-0.061
Mof_H 	H 	0.1184	0.2395	0.0832	0.048
Mof_C 	C 	0.0573	0.2352	0.0646	-0.021
Mof_H 	H 	0.0506	0.2113	0.0806	0.028
Mof_C 	C 	0.0266	0.2539	0.0393	-0.017
Mof_C 	C 	0.0366	0.2895	0.0154	-0.032
Mof_H 	H 	0.016	0.302	0.9984	0.033
Mof_C 	C 	0.0771	0.3063	0.017	-0.039
Mof_H 	H 	0.0838	0.3302	0.001	0.027
Mof_N 	N 	0.70545	0.841	0.5284	-0.282
Mof_C 	C 	0.66507	0.8322	0.51565	0.078
Mof_H 	H 	0.6526	0.841	0.4904	-0.022
Mof_N 	N 	0.64624	0.8084	0.5464	-0.133
Mof_C 	C 	0.675	0.8024	0.5781	0.004
Mof_H 	H 	0.6704	0.7872	0.603	0.023
Mof_C 	C 	0.71157	0.8225	0.567	-0.009
Mof_H 	H 	0.7363	0.8235	0.583	0.001
Mof_C 	C 	0.6001	0.7968	0.5468	0.055
Mof_C 	C 	0.5802	0.7865	0.5846	-0.066
Mof_H 	H 	0.5941	0.7908	0.6103	0.052
Mof_C 	C 	0.5395	0.7698	0.5842	-0.033
Mof_H 	H 	0.5261	0.7628	0.6096	0.028
Mof_C 	C 	0.5188	0.7634	0.546	0.011
Mof_C 	C 	0.5387	0.7737	0.5081	-0.019
Mof_H 	H 	0.5247	0.7694	0.4825	0.015
Mof_C 	C 	0.5793	0.7904	0.5086	-0.077
Mof_H 	H 	0.5927	0.7973	0.4832	0.047
Mof_C 	C 	0.6077	0.7876	0.5423	0.027
Mof_C 	C 	0.5978	0.7521	0.5662	-0.052
Mof_H 	H 	0.6184	0.7395	0.5832	0.046
Mof_C 	C 	0.5573	0.7352	0.5646	-0.026
Mof_H 	H 	0.5506	0.7113	0.5806	0.033
Mof_C 	C 	0.5266	0.7539	0.5393	-0.01
Mof_C 	C 	0.5366	0.7895	0.5154	-0.016
Mof_H 	H 	0.516	0.802	0.4984	0.025
Mof_C 	C 	0.5771	0.8063	0.517	-0.019
Mof_H 	H 	0.5838	0.8302	0.501	0.029
Mof_N 	N 	0.79455	0.841	0.4716	-0.282
Mof_C 	C 	0.83493	0.8322	0.48435	0.078
Mof_H 	H 	0.8474	0.841	0.5096	-0.021
Mof_N 	N 	0.85376	0.8084	0.4536	-0.133
Mof_C 	C 	0.825	0.8024	0.4219	0.004
Mof_H 	H 	0.8296	0.7872	0.397	0.023
Mof_C 	C 	0.78843	0.8225	0.433	-0.009
Mof_H 	H 	0.7637	0.8235	0.417	0.001
Mof_C 	C 	0.8999	0.7968	0.4532	0.053
Mof_C 	C 	0.9198	0.7865	0.4154	-0.065
Mof_H 	H 	0.9059	0.7908	0.3897	0.051
Mof_C 	C 	0.9605	0.7698	0.4158	-0.034
Mof_H 	H 	0.9739	0.7628	0.3904	0.033
Mof_C 	C 	0.9812	0.7634	0.454	0.015
Mof_C 	C 	0.9613	0.7737	0.4919	-0.02
Mof_H 	H 	0.9753	0.7694	0.5175	0.019
Mof_C 	C 	0.9207	0.7904	0.4914	-0.075
Mof_H 	H 	0.9073	0.7973	0.5168	0.046
Mof_C 	C 	0.8923	0.7876	0.4577	0.027
Mof_C 	C 	0.9022	0.7521	0.4338	-0.049
Mof_H 	H 	0.8816	0.7395	0.4168	0.045
Mof_C 	C 	0.9427	0.7352	0.4354	-0.031
Mof_H 	H 	0.9494	0.7113	0.4194	0.037
Mof_C 	C 	0.9734	0.7539	0.4607	-0.001
Mof_C 	C 	0.9634	0.7895	0.4846	-0.022
Mof_H 	H 	0.984	0.802	0.5016	0.03
Mof_C 	C 	0.9229	0.8063	0.483	-0.018
Mof_H 	H 	0.9162	0.8302	0.499	0.029
Mof_N 	N 	0.29455	0.341	0.9716	-0.283
Mof_C 	C 	0.33493	0.3322	0.98435	0.099
Mof_H 	H 	0.3474	0.341	0.0096	-0.036
Mof_N 	N 	0.35376	0.3084	0.9536	-0.136
Mof_C 	C 	0.325	0.3024	0.9219	0.004
Mof_H 	H 	0.3296	0.2872	0.897	0.023
Mof_C 	C 	0.28843	0.3225	0.933	-0.009
Mof_H 	H 	0.2637	0.3235	0.917	0.001
Mof_C 	C 	0.3999	0.2968	0.9532	0.061
Mof_C 	C 	0.4198	0.2865	0.9154	-0.073
Mof_H 	H 	0.4059	0.2908	0.8897	0.054
Mof_C 	C 	0.4605	0.2698	0.9158	-0.031
Mof_H 	H 	0.4739	0.2628	0.8904	0.027
Mof_C 	C 	0.4812	0.2634	0.954	0.012
Mof_C 	C 	0.4613	0.2737	0.9919	-0.017
Mof_H 	H 	0.4753	0.2694	0.0175	0.01
Mof_C 	C 	0.4207	0.2904	0.9914	-0.095
Mof_H 	H 	0.4073	0.2973	0.0168	0.044
Mof_C 	C 	0.3923	0.2876	0.9577	0.023
Mof_C 	C 	0.4022	0.2521	0.9338	-0.046
Mof_H 	H 	0.3816	0.2395	0.9168	0.045
Mof_C 	C 	0.4427	0.2352	0.9354	-0.025
Mof_H 	H 	0.4494	0.2113	0.9194	0.033
Mof_C 	C 	0.4734	0.2539	0.9607	-0.014
Mof_C 	C 	0.4634	0.2895	0.9846	0.006
Mof_H 	H 	0.484	0.302	0.0016	0.01
Mof_C 	C 	0.4229	0.3063	0.983	-0.001
Mof_H 	H 	0.4162	0.3302	0.999	0.029
Mof_N 	N 	0.2784	0.591	0.45545	-0.283
Mof_C 	C 	0.26565	0.5822	0.41507	0.077
Mof_H 	H 	0.2404	0.591	0.4026	-0.022
Mof_N 	N 	0.2964	0.5584	0.39624	-0.133
Mof_C 	C 	0.3281	0.5524	0.425	0.004
Mof_H 	H 	0.353	0.5372	0.4204	0.023
Mof_C 	C 	0.317	0.5725	0.46157	-0.009
Mof_H 	H 	0.333	0.5735	0.4863	0.001
Mof_C 	C 	0.2968	0.5468	0.3501	0.055
Mof_C 	C 	0.3346	0.5365	0.3302	-0.067
Mof_H 	H 	0.3603	0.5408	0.3441	0.052
Mof_C 	C 	0.3342	0.5198	0.2895	-0.033
Mof_H 	H 	0.3596	0.5128	0.2761	0.028
Mof_C 	C 	0.296	0.5134	0.2688	0.012
Mof_C 	C 	0.2581	0.5237	0.2887	-0.019
Mof_H 	H 	0.2325	0.5194	0.2747	0.016
Mof_C 	C 	0.2586	0.5404	0.3293	-0.078
Mof_H 	H 	0.2332	0.5473	0.3427	0.047
Mof_C 	C 	0.2923	0.5376	0.3577	0.027
Mof_C 	C 	0.3162	0.5021	0.3478	-0.052
Mof_H 	H 	0.3332	0.4895	0.3684	0.046
Mof_C 	C 	0.3146	0.4852	0.3073	-0.025
Mof_H 	H 	0.3306	0.4613	0.3006	0.033
Mof_C 	C 	0.2893	0.5039	0.2766	-0.011
Mof_C 	C 	0.2654	0.5395	0.2866	-0.016
Mof_H 	H 	0.2484	0.552	0.266	0.024
Mof_C 	C 	0.267	0.5563	0.3271	-0.019
Mof_H 	H 	0.251	0.5802	0.3338	0.028
Mof_N 	N 	0.7784	0.091	0.95545	-0.28
Mof_C 	C 	0.76565	0.0822	0.91507	0.078
Mof_H 	H 	0.7404	0.091	0.9026	-0.022
Mof_N 	N 	0.7964	0.0584	0.89624	-0.135
Mof_C 	C 	0.8281	0.0524	0.925	0.004
Mof_H 	H 	0.853	0.0372	0.9204	0.022
Mof_C 	C 	0.817	0.0725	0.96157	-0.009
Mof_H 	H 	0.833	0.0735	0.9863	0.005
Mof_C 	C 	0.7968	0.0468	0.8501	0.075
Mof_C 	C 	0.8346	0.0365	0.8302	-0.039
Mof_H 	H 	0.8603	0.0408	0.8441	0.041
Mof_C 	C 	0.8342	0.0198	0.7895	-0.058
Mof_H 	H 	0.8596	0.0128	0.7761	0.035
Mof_C 	C 	0.796	0.0134	0.7688	-0.033
Mof_C 	C 	0.7581	0.0237	0.7887	-0.002
Mof_H 	H 	0.7325	0.0194	0.7747	0.006
Mof_C 	C 	0.7586	0.0404	0.8293	-0.084
Mof_H 	H 	0.7332	0.0473	0.8427	0.049
Mof_C 	C 	0.7923	0.0376	0.8577	0.019
Mof_C 	C 	0.8162	0.0021	0.8478	-0.121
Mof_H 	H 	0.8332	0.9895	0.8684	0.079
Mof_C 	C 	0.8146	0.9852	0.8073	0.035
Mof_H 	H 	0.8306	0.9613	0.8006	0.013
Mof_C 	C 	0.7893	0.0039	0.7766	0.004
Mof_C 	C 	0.7654	0.0395	0.7866	-0.021
Mof_H 	H 	0.7484	0.052	0.766	0.026
Mof_C 	C 	0.767	0.0563	0.8271	-0.024
Mof_H 	H 	0.751	0.0802	0.8338	0.03
Mof_N 	N 	0.7216	0.091	0.04455	-0.284
Mof_C 	C 	0.73435	0.0822	0.08493	0.077
Mof_H 	H 	0.7596	0.091	0.0974	-0.022
Mof_N 	N 	0.7036	0.0584	0.10376	-0.135
Mof_C 	C 	0.6719	0.0524	0.075	0.002
Mof_H 	H 	0.647	0.0372	0.0796	0.02
Mof_C 	C 	0.683	0.0725	0.03843	-0.011
Mof_H 	H 	0.667	0.0735	0.0137	-0.003
Mof_C 	C 	0.7032	0.0468	0.1499	0.075
Mof_C 	C 	0.6654	0.0365	0.1698	-0.039
Mof_H 	H 	0.6397	0.0408	0.1559	0.04
Mof_C 	C 	0.6658	0.0198	0.2105	-0.058
Mof_H 	H 	0.6404	0.0128	0.2239	0.034
Mof_C 	C 	0.704	0.0134	0.2312	-0.033
Mof_C 	C 	0.7419	0.0237	0.2113	-0.002
Mof_H 	H 	0.7675	0.0194	0.2253	0.006
Mof_C 	C 	0.7414	0.0404	0.1707	-0.084
Mof_H 	H 	0.7668	0.0473	0.1573	0.048
Mof_C 	C 	0.7077	0.0376	0.1423	0.019
Mof_C 	C 	0.6838	0.0021	0.1522	-0.12
Mof_H 	H 	0.6668	0.9895	0.1316	0.078
Mof_C 	C 	0.6854	0.9852	0.1927	0.035
Mof_H 	H 	0.6694	0.9613	0.1994	0.013
Mof_C 	C 	0.7107	0.0039	0.2234	0.004
Mof_C 	C 	0.7346	0.0395	0.2134	-0.021
Mof_H 	H 	0.7516	0.052	0.234	0.026
Mof_C 	C 	0.733	0.0563	0.1729	-0.024
Mof_H 	H 	0.749	0.0802	0.1662	0.03
Mof_N 	N 	0.2216	0.591	0.54455	-0.283
Mof_C 	C 	0.23435	0.5822	0.58493	0.077
Mof_H 	H 	0.2596	0.591	0.5974	-0.022
Mof_N 	N 	0.2036	0.5584	0.60376	-0.133
Mof_C 	C 	0.1719	0.5524	0.575	0.004
Mof_H 	H 	0.147	0.5372	0.5796	0.023
Mof_C 	C 	0.183	0.5725	0.53843	-0.01
Mof_H 	H 	0.167	0.5735	0.5137	0.001
Mof_C 	C 	0.2032	0.5468	0.6499	0.055
Mof_C 	C 	0.1654	0.5365	0.6698	-0.067
Mof_H 	H 	0.1397	0.5408	0.6559	0.051
Mof_C 	C 	0.1658	0.5198	0.7105	-0.033
Mof_H 	H 	0.1404	0.5128	0.7239	0.028
Mof_C 	C 	0.204	0.5134	0.7312	0.012
Mof_C 	C 	0.2419	0.5237	0.7113	-0.019
Mof_H 	H 	0.2675	0.5194	0.7253	0.016
Mof_C 	C 	0.2414	0.5404	0.6707	-0.078
Mof_H 	H 	0.2668	0.5473	0.6573	0.047
Mof_C 	C 	0.2077	0.5376	0.6423	0.027
Mof_C 	C 	0.1838	0.5021	0.6522	-0.052
Mof_H 	H 	0.1668	0.4895	0.6316	0.046
Mof_C 	C 	0.1854	0.4852	0.6927	-0.026
Mof_H 	H 	0.1694	0.4613	0.6994	0.033
Mof_C 	C 	0.2107	0.5039	0.7234	-0.011
Mof_C 	C 	0.2346	0.5395	0.7134	-0.016
Mof_H 	H 	0.2516	0.552	0.734	0.024
Mof_C 	C 	0.233	0.5563	0.6729	-0.019
Mof_H 	H 	0.249	0.5802	0.6662	0.028
Mof_N 	N 	0.2216	0.409	0.95545	-0.28
Mof_C 	C 	0.23435	0.4178	0.91507	0.078
Mof_H 	H 	0.2596	0.409	0.9026	-0.021
Mof_N 	N 	0.2036	0.4416	0.89624	-0.133
Mof_C 	C 	0.1719	0.4476	0.925	0.005
Mof_H 	H 	0.147	0.4628	0.9204	0.024
Mof_C 	C 	0.183	0.4275	0.96157	-0.009
Mof_H 	H 	0.167	0.4265	0.9863	0.005
Mof_C 	C 	0.2032	0.4532	0.8501	0.055
Mof_C 	C 	0.1654	0.4635	0.8302	-0.067
Mof_H 	H 	0.1397	0.4592	0.8441	0.052
Mof_C 	C 	0.1658	0.4802	0.7895	-0.033
Mof_H 	H 	0.1404	0.4872	0.7761	0.028
Mof_C 	C 	0.204	0.4866	0.7688	0.012
Mof_C 	C 	0.2419	0.4763	0.7887	-0.019
Mof_H 	H 	0.2675	0.4806	0.7747	0.016
Mof_C 	C 	0.2414	0.4596	0.8293	-0.078
Mof_H 	H 	0.2668	0.4527	0.8427	0.047
Mof_C 	C 	0.2077	0.4624	0.8577	0.027
Mof_C 	C 	0.1838	0.4979	0.8478	-0.052
Mof_H 	H 	0.1668	0.5105	0.8684	0.046
Mof_C 	C 	0.1854	0.5148	0.8073	-0.026
Mof_H 	H 	0.1694	0.5387	0.8006	0.033
Mof_C 	C 	0.2107	0.4961	0.7766	-0.011
Mof_C 	C 	0.2346	0.4605	0.7866	-0.016
Mof_H 	H 	0.2516	0.448	0.766	0.024
Mof_C 	C 	0.233	0.4437	0.8271	-0.019
Mof_H 	H 	0.249	0.4198	0.8338	0.028
Mof_N 	N 	0.7216	0.909	0.45545	-0.283
Mof_C 	C 	0.73435	0.9178	0.41507	0.078
Mof_H 	H 	0.7596	0.909	0.4026	-0.021
Mof_N 	N 	0.7036	0.9416	0.39624	-0.132
Mof_C 	C 	0.6719	0.9476	0.425	0.004
Mof_H 	H 	0.647	0.9628	0.4204	0.026
Mof_C 	C 	0.683	0.9275	0.46157	-0.009
Mof_H 	H 	0.667	0.9265	0.4863	0.002
Mof_C 	C 	0.7032	0.9532	0.3501	0.034
Mof_C 	C 	0.6654	0.9635	0.3302	-0.094
Mof_H 	H 	0.6397	0.9592	0.3441	0.063
Mof_C 	C 	0.6658	0.9802	0.2895	-0.008
Mof_H 	H 	0.6404	0.9872	0.2761	0.022
Mof_C 	C 	0.704	0.9866	0.2688	0.057
Mof_C 	C 	0.7419	0.9763	0.2887	-0.037
Mof_H 	H 	0.7675	0.9806	0.2747	0.026
Mof_C 	C 	0.7414	0.9596	0.3293	-0.072
Mof_H 	H 	0.7668	0.9527	0.3427	0.046
Mof_C 	C 	0.7077	0.9624	0.3577	0.036
Mof_C 	C 	0.6838	0.9979	0.3478	0.017
Mof_H 	H 	0.6668	0.0105	0.3684	0.014
Mof_C 	C 	0.6854	0.0148	0.3073	-0.086
Mof_H 	H 	0.6694	0.0387	0.3006	0.053
Mof_C 	C 	0.7107	0.9961	0.2766	-0.026
Mof_C 	C 	0.7346	0.9605	0.2866	-0.011
Mof_H 	H 	0.7516	0.948	0.266	0.023
Mof_C 	C 	0.733	0.9437	0.3271	-0.014
Mof_H 	H 	0.749	0.9198	0.3338	0.026
Mof_N 	N 	0.7784	0.909	0.54455	-0.283
Mof_C 	C 	0.76565	0.9178	0.58493	0.078
Mof_H 	H 	0.7404	0.909	0.5974	-0.021
Mof_N 	N 	0.7964	0.9416	0.60376	-0.132
Mof_C 	C 	0.8281	0.9476	0.575	0.004
Mof_H 	H 	0.853	0.9628	0.5796	0.027
Mof_C 	C 	0.817	0.9275	0.53843	-0.009
Mof_H 	H 	0.833	0.9265	0.5137	0.002
Mof_C 	C 	0.7968	0.9532	0.6499	0.034
Mof_C 	C 	0.8346	0.9635	0.6698	-0.094
Mof_H 	H 	0.8603	0.9592	0.6559	0.063
Mof_C 	C 	0.8342	0.9802	0.7105	-0.008
Mof_H 	H 	0.8596	0.9872	0.7239	0.023
Mof_C 	C 	0.796	0.9866	0.7312	0.057
Mof_C 	C 	0.7581	0.9763	0.7113	-0.037
Mof_H 	H 	0.7325	0.9806	0.7253	0.026
Mof_C 	C 	0.7586	0.9596	0.6707	-0.072
Mof_H 	H 	0.7332	0.9527	0.6573	0.046
Mof_C 	C 	0.7923	0.9624	0.6423	0.036
Mof_C 	C 	0.8162	0.9979	0.6522	0.017
Mof_H 	H 	0.8332	0.0105	0.6316	0.014
Mof_C 	C 	0.8146	0.0148	0.6927	-0.086
Mof_H 	H 	0.8306	0.0387	0.6994	0.053
Mof_C 	C 	0.7893	0.9961	0.7234	-0.026
Mof_C 	C 	0.7654	0.9605	0.7134	-0.011
Mof_H 	H 	0.7484	0.948	0.734	0.023
Mof_C 	C 	0.767	0.9437	0.6729	-0.014
Mof_H 	H 	0.751	0.9198	0.6662	0.026
Mof_N 	N 	0.2784	0.409	0.04455	-0.284
Mof_C 	C 	0.26565	0.4178	0.08493	0.077
Mof_H 	H 	0.2404	0.409	0.0974	-0.022
Mof_N 	N 	0.2964	0.4416	0.10376	-0.133
Mof_C 	C 	0.3281	0.4476	0.075	0.003
Mof_H 	H 	0.353	0.4628	0.0796	0.022
Mof_C 	C 	0.317	0.4275	0.03843	-0.01
Mof_H 	H 	0.333	0.4265	0.0137	-0.003
Mof_C 	C 	0.2968	0.4532	0.1499	0.055
Mof_C 	C 	0.3346	0.4635	0.1698	-0.066
Mof_H 	H 	0.3603	0.4592	0.1559	0.051
Mof_C 	C 	0.3342	0.4802	0.2105	-0.033
Mof_H 	H 	0.3596	0.4872	0.2239	0.028
Mof_C 	C 	0.296	0.4866	0.2312	0.012
Mof_C 	C 	0.2581	0.4763	0.2113	-0.019
Mof_H 	H 	0.2325	0.4806	0.2253	0.016
Mof_C 	C 	0.2586	0.4596	0.1707	-0.078
Mof_H 	H 	0.2332	0.4527	0.1573	0.047
Mof_C 	C 	0.2923	0.4624	0.1423	0.027
Mof_C 	C 	0.3162	0.4979	0.1522	-0.052
Mof_H 	H 	0.3332	0.5105	0.1316	0.046
Mof_C 	C 	0.3146	0.5148	0.1927	-0.026
Mof_H 	H 	0.3306	0.5387	0.1994	0.033
Mof_C 	C 	0.2893	0.4961	0.2234	-0.011
Mof_C 	C 	0.2654	0.4605	0.2134	-0.016
Mof_H 	H 	0.2484	0.448	0.234	0.024
Mof_C 	C 	0.267	0.4437	0.1729	-0.019
Mof_H 	H 	0.251	0.4198	0.1662	0.028
Mof_Zn	Zn	0.75	0.125	-0	1.17
Mof_Zn	Zn	0.25	0.625	0.5	1.173
Mof_Zn	Zn	0.25	0.375	-0	1.17
Mof_Zn	Zn	0.75	0.875	0.5	1.173
Mof_N 	N 	0.45545	0.2216	0.091	-0.282
Mof_C 	C 	0.41507	0.23435	0.0822	0.077
Mof_H 	H 	0.4026	0.2596	0.091	-0.022
Mof_N 	N 	0.39624	0.2036	0.0584	-0.135
Mof_C 	C 	0.425	0.1719	0.0524	0.003
Mof_H 	H 	0.4204	0.147	0.0372	0.02
Mof_C 	C 	0.46157	0.183	0.0725	-0.01
Mof_H 	H 	0.4863	0.167	0.0735	-0
Mof_C 	C 	0.3501	0.2032	0.0468	0.075
Mof_C 	C 	0.3302	0.1654	0.0365	-0.039
Mof_H 	H 	0.3441	0.1397	0.0408	0.04
Mof_C 	C 	0.2895	0.1658	0.0198	-0.058
Mof_H 	H 	0.2761	0.1404	0.0128	0.034
Mof_C 	C 	0.2688	0.204	0.0134	-0.033
Mof_C 	C 	0.2887	0.2419	0.0237	-0.002
Mof_H 	H 	0.2747	0.2675	0.0194	0.006
Mof_C 	C 	0.3293	0.2414	0.0404	-0.084
Mof_H 	H 	0.3427	0.2668	0.0473	0.049
Mof_C 	C 	0.3577	0.2077	0.0376	0.019
Mof_C 	C 	0.3478	0.1838	0.0021	-0.12
Mof_H 	H 	0.3684	0.1668	0.9895	0.078
Mof_C 	C 	0.3073	0.1854	0.9852	0.035
Mof_H 	H 	0.3006	0.1694	0.9613	0.013
Mof_C 	C 	0.2766	0.2107	0.0039	0.004
Mof_C 	C 	0.2866	0.2346	0.0395	-0.021
Mof_H 	H 	0.266	0.2516	0.052	0.026
Mof_C 	C 	0.3271	0.233	0.0563	-0.024
Mof_H 	H 	0.3338	0.249	0.0802	0.03
Mof_N 	N 	0.95545	0.7216	0.591	-0.28
Mof_C 	C 	0.91507	0.73435	0.5822	0.078
Mof_H 	H 	0.9026	0.7596	0.591	-0.021
Mof_N 	N 	0.89624	0.7036	0.5584	-0.133
Mof_C 	C 	0.925	0.6719	0.5524	0.005
Mof_H 	H 	0.9204	0.647	0.5372	0.024
Mof_C 	C 	0.96157	0.683	0.5725	-0.009
Mof_H 	H 	0.9863	0.667	0.5735	0.005
Mof_C 	C 	0.8501	0.7032	0.5468	0.055
Mof_C 	C 	0.8302	0.6654	0.5365	-0.067
Mof_H 	H 	0.8441	0.6397	0.5408	0.052
Mof_C 	C 	0.7895	0.6658	0.5198	-0.033
Mof_H 	H 	0.7761	0.6404	0.5128	0.028
Mof_C 	C 	0.7688	0.704	0.5134	0.012
Mof_C 	C 	0.7887	0.7419	0.5237	-0.019
Mof_H 	H 	0.7747	0.7675	0.5194	0.016
Mof_C 	C 	0.8293	0.7414	0.5404	-0.078
Mof_H 	H 	0.8427	0.7668	0.5473	0.047
Mof_C 	C 	0.8577	0.7077	0.5376	0.027
Mof_C 	C 	0.8478	0.6838	0.5021	-0.052
Mof_H 	H 	0.8684	0.6668	0.4895	0.047
Mof_C 	C 	0.8073	0.6854	0.4852	-0.025
Mof_H 	H 	0.8006	0.6694	0.4613	0.033
Mof_C 	C 	0.7766	0.7107	0.5039	-0.011
Mof_C 	C 	0.7866	0.7346	0.5395	-0.016
Mof_H 	H 	0.766	0.7516	0.552	0.024
Mof_C 	C 	0.8271	0.733	0.5563	-0.019
Mof_H 	H 	0.8338	0.749	0.5802	0.028
Mof_N 	N 	0.04455	0.7784	0.591	-0.284
Mof_C 	C 	0.08493	0.76565	0.5822	0.077
Mof_H 	H 	0.0974	0.7404	0.591	-0.022
Mof_N 	N 	0.10376	0.7964	0.5584	-0.133
Mof_C 	C 	0.075	0.8281	0.5524	0.003
Mof_H 	H 	0.0796	0.853	0.5372	0.023
Mof_C 	C 	0.03843	0.817	0.5725	-0.01
Mof_H 	H 	0.0137	0.833	0.5735	-0.002
Mof_C 	C 	0.1499	0.7968	0.5468	0.055
Mof_C 	C 	0.1698	0.8346	0.5365	-0.066
Mof_H 	H 	0.1559	0.8603	0.5408	0.052
Mof_C 	C 	0.2105	0.8342	0.5198	-0.033
Mof_H 	H 	0.2239	0.8596	0.5128	0.029
Mof_C 	C 	0.2312	0.796	0.5134	0.012
Mof_C 	C 	0.2113	0.7581	0.5237	-0.019
Mof_H 	H 	0.2253	0.7325	0.5194	0.016
Mof_C 	C 	0.1707	0.7586	0.5404	-0.078
Mof_H 	H 	0.1573	0.7332	0.5473	0.047
Mof_C 	C 	0.1423	0.7923	0.5376	0.027
Mof_C 	C 	0.1522	0.8162	0.5021	-0.052
Mof_H 	H 	0.1316	0.8332	0.4895	0.046
Mof_C 	C 	0.1927	0.8146	0.4852	-0.025
Mof_H 	H 	0.1994	0.8306	0.4613	0.033
Mof_C 	C 	0.2234	0.7893	0.5039	-0.01
Mof_C 	C 	0.2134	0.7654	0.5395	-0.016
Mof_H 	H 	0.234	0.7484	0.552	0.024
Mof_C 	C 	0.1729	0.767	0.5563	-0.019
Mof_H 	H 	0.1662	0.751	0.5802	0.028
Mof_N 	N 	0.54455	0.2784	0.091	-0.283
Mof_C 	C 	0.58493	0.26565	0.0822	0.077
Mof_H 	H 	0.5974	0.2404	0.091	-0.022
Mof_N 	N 	0.60376	0.2964	0.0584	-0.135
Mof_C 	C 	0.575	0.3281	0.0524	0.003
Mof_H 	H 	0.5796	0.353	0.0372	0.021
Mof_C 	C 	0.53843	0.317	0.0725	-0.01
Mof_H 	H 	0.5137	0.333	0.0735	0
Mof_C 	C 	0.6499	0.2968	0.0468	0.075
Mof_C 	C 	0.6698	0.3346	0.0365	-0.039
Mof_H 	H 	0.6559	0.3603	0.0408	0.04
Mof_C 	C 	0.7105	0.3342	0.0198	-0.058
Mof_H 	H 	0.7239	0.3596	0.0128	0.034
Mof_C 	C 	0.7312	0.296	0.0134	-0.033
Mof_C 	C 	0.7113	0.2581	0.0237	-0.002
Mof_H 	H 	0.7253	0.2325	0.0194	0.006
Mof_C 	C 	0.6707	0.2586	0.0404	-0.084
Mof_H 	H 	0.6573	0.2332	0.0473	0.049
Mof_C 	C 	0.6423	0.2923	0.0376	0.019
Mof_C 	C 	0.6522	0.3162	0.0021	-0.121
Mof_H 	H 	0.6316	0.3332	0.9895	0.078
Mof_C 	C 	0.6927	0.3146	0.9852	0.035
Mof_H 	H 	0.6994	0.3306	0.9613	0.013
Mof_C 	C 	0.7234	0.2893	0.0039	0.004
Mof_C 	C 	0.7134	0.2654	0.0395	-0.021
Mof_H 	H 	0.734	0.2484	0.052	0.026
Mof_C 	C 	0.6729	0.267	0.0563	-0.024
Mof_H 	H 	0.6662	0.251	0.0802	0.03
Mof_N 	N 	0.95545	0.2784	0.909	-0.28
Mof_C 	C 	0.91507	0.26565	0.9178	0.078
Mof_H 	H 	0.9026	0.2404	0.909	-0.021
Mof_N 	N 	0.89624	0.2964	0.9416	-0.132
Mof_C 	C 	0.925	0.3281	0.9476	0.005
Mof_H 	H 	0.9204	0.353	0.9628	0.027
Mof_C 	C 	0.96157	0.317	0.9275	-0.008
Mof_H 	H 	0.9863	0.333	0.9265	0.006
Mof_C 	C 	0.8501	0.2968	0.9532	0.034
Mof_C 	C 	0.8302	0.3346	0.9635	-0.094
Mof_H 	H 	0.8441	0.3603	0.9592	0.063
Mof_C 	C 	0.7895	0.3342	0.9802	-0.008
Mof_H 	H 	0.7761	0.3596	0.9872	0.022
Mof_C 	C 	0.7688	0.296	0.9866	0.057
Mof_C 	C 	0.7887	0.2581	0.9763	-0.037
Mof_H 	H 	0.7747	0.2325	0.9806	0.026
Mof_C 	C 	0.8293	0.2586	0.9596	-0.072
Mof_H 	H 	0.8427	0.2332	0.9527	0.046
Mof_C 	C 	0.8577	0.2923	0.9624	0.036
Mof_C 	C 	0.8478	0.3162	0.9979	0.017
Mof_H 	H 	0.8684	0.3332	0.0105	0.015
Mof_C 	C 	0.8073	0.3146	0.0148	-0.086
Mof_H 	H 	0.8006	0.3306	0.0387	0.053
Mof_C 	C 	0.7766	0.2893	0.9961	-0.026
Mof_C 	C 	0.7866	0.2654	0.9605	-0.011
Mof_H 	H 	0.766	0.2484	0.948	0.023
Mof_C 	C 	0.8271	0.267	0.9437	-0.014
Mof_H 	H 	0.8338	0.251	0.9198	0.026
Mof_N 	N 	0.45545	0.7784	0.409	-0.283
Mof_C 	C 	0.41507	0.76565	0.4178	0.077
Mof_H 	H 	0.4026	0.7404	0.409	-0.022
Mof_N 	N 	0.39624	0.7964	0.4416	-0.133
Mof_C 	C 	0.425	0.8281	0.4476	0.004
Mof_H 	H 	0.4204	0.853	0.4628	0.024
Mof_C 	C 	0.46157	0.817	0.4275	-0.009
Mof_H 	H 	0.4863	0.833	0.4265	0.001
Mof_C 	C 	0.3501	0.7968	0.4532	0.055
Mof_C 	C 	0.3302	0.8346	0.4635	-0.067
Mof_H 	H 	0.3441	0.8603	0.4592	0.052
Mof_C 	C 	0.2895	0.8342	0.4802	-0.033
Mof_H 	H 	0.2761	0.8596	0.4872	0.029
Mof_C 	C 	0.2688	0.796	0.4866	0.012
Mof_C 	C 	0.2887	0.7581	0.4763	-0.019
Mof_H 	H 	0.2747	0.7325	0.4806	0.016
Mof_C 	C 	0.3293	0.7586	0.4596	-0.078
Mof_H 	H 	0.3427	0.7332	0.4527	0.047
Mof_C 	C 	0.3577	0.7923	0.4624	0.027
Mof_C 	C 	0.3478	0.8162	0.4979	-0.052
Mof_H 	H 	0.3684	0.8332	0.5105	0.047
Mof_C 	C 	0.3073	0.8146	0.5148	-0.025
Mof_H 	H 	0.3006	0.8306	0.5387	0.033
Mof_C 	C 	0.2766	0.7893	0.4961	-0.011
Mof_C 	C 	0.2866	0.7654	0.4605	-0.016
Mof_H 	H 	0.266	0.7484	0.448	0.024
Mof_C 	C 	0.3271	0.767	0.4437	-0.019
Mof_H 	H 	0.3338	0.751	0.4198	0.028
Mof_N 	N 	0.54455	0.7216	0.409	-0.283
Mof_C 	C 	0.58493	0.73435	0.4178	0.077
Mof_H 	H 	0.5974	0.7596	0.409	-0.022
Mof_N 	N 	0.60376	0.7036	0.4416	-0.133
Mof_C 	C 	0.575	0.6719	0.4476	0.004
Mof_H 	H 	0.5796	0.647	0.4628	0.023
Mof_C 	C 	0.53843	0.683	0.4275	-0.009
Mof_H 	H 	0.5137	0.667	0.4265	0.001
Mof_C 	C 	0.6499	0.7032	0.4532	0.055
Mof_C 	C 	0.6698	0.6654	0.4635	-0.067
Mof_H 	H 	0.6559	0.6397	0.4592	0.052
Mof_C 	C 	0.7105	0.6658	0.4802	-0.033
Mof_H 	H 	0.7239	0.6404	0.4872	0.028
Mof_C 	C 	0.7312	0.704	0.4866	0.012
Mof_C 	C 	0.7113	0.7419	0.4763	-0.019
Mof_H 	H 	0.7253	0.7675	0.4806	0.016
Mof_C 	C 	0.6707	0.7414	0.4596	-0.078
Mof_H 	H 	0.6573	0.7668	0.4527	0.047
Mof_C 	C 	0.6423	0.7077	0.4624	0.027
Mof_C 	C 	0.6522	0.6838	0.4979	-0.052
Mof_H 	H 	0.6316	0.6668	0.5105	0.046
Mof_C 	C 	0.6927	0.6854	0.5148	-0.026
Mof_H 	H 	0.6994	0.6694	0.5387	0.033
Mof_C 	C 	0.7234	0.7107	0.4961	-0.011
Mof_C 	C 	0.7134	0.7346	0.4605	-0.016
Mof_H 	H 	0.734	0.7516	0.448	0.024
Mof_C 	C 	0.6729	0.733	0.4437	-0.019
Mof_H 	H 	0.6662	0.749	0.4198	0.028
Mof_N 	N 	0.04455	0.2216	0.909	-0.284
Mof_C 	C 	0.08493	0.23435	0.9178	0.077
Mof_H 	H 	0.0974	0.2596	0.909	-0.022
Mof_N 	N 	0.10376	0.2036	0.9416	-0.132
Mof_C 	C 	0.075	0.1719	0.9476	0.003
Mof_H 	H 	0.0796	0.147	0.9628	0.025
Mof_C 	C 	0.03843	0.183	0.9275	-0.01
Mof_H 	H 	0.0137	0.167	0.9265	-0.002
Mof_C 	C 	0.1499	0.2032	0.9532	0.034
Mof_C 	C 	0.1698	0.1654	0.9635	-0.094
Mof_H 	H 	0.1559	0.1397	0.9592	0.063
Mof_C 	C 	0.2105	0.1658	0.9802	-0.008
Mof_H 	H 	0.2239	0.1404	0.9872	0.022
Mof_C 	C 	0.2312	0.204	0.9866	0.057
Mof_C 	C 	0.2113	0.2419	0.9763	-0.037
Mof_H 	H 	0.2253	0.2675	0.9806	0.026
Mof_C 	C 	0.1707	0.2414	0.9596	-0.071
Mof_H 	H 	0.1573	0.2668	0.9527	0.046
Mof_C 	C 	0.1423	0.2077	0.9624	0.036
Mof_C 	C 	0.1522	0.1838	0.9979	0.017
Mof_H 	H 	0.1316	0.1668	0.0105	0.013
Mof_C 	C 	0.1927	0.1854	0.0148	-0.086
Mof_H 	H 	0.1994	0.1694	0.0387	0.053
Mof_C 	C 	0.2234	0.2107	0.9961	-0.026
Mof_C 	C 	0.2134	0.2346	0.9605	-0.011
Mof_H 	H 	0.234	0.2516	0.948	0.023
Mof_C 	C 	0.1729	0.233	0.9437	-0.014
Mof_H 	H 	0.1662	0.249	0.9198	0.026
Mof_N 	N 	0.0284	0.29455	0.841	-0.281
Mof_C 	C 	0.01565	0.33493	0.8322	0.056
Mof_H 	H 	0.9904	0.3474	0.841	-0.007
Mof_N 	N 	0.0464	0.35376	0.8084	-0.131
Mof_C 	C 	0.0781	0.325	0.8024	0.003
Mof_H 	H 	0.103	0.3296	0.7872	0.023
Mof_C 	C 	0.067	0.28843	0.8225	-0.01
Mof_H 	H 	0.083	0.2637	0.8235	0.001
Mof_C 	C 	0.0468	0.3999	0.7968	0.049
Mof_C 	C 	0.0846	0.4198	0.7865	-0.06
Mof_H 	H 	0.1103	0.4059	0.7908	0.049
Mof_C 	C 	0.0842	0.4605	0.7698	-0.035
Mof_H 	H 	0.1096	0.4739	0.7628	0.029
Mof_C 	C 	0.046	0.4812	0.7634	0.01
Mof_C 	C 	0.0081	0.4613	0.7737	-0.021
Mof_H 	H 	0.9825	0.4753	0.7694	0.021
Mof_C 	C 	0.0086	0.4207	0.7904	-0.061
Mof_H 	H 	0.9832	0.4073	0.7973	0.05
Mof_C 	C 	0.0423	0.3923	0.7876	0.032
Mof_C 	C 	0.0662	0.4022	0.7521	-0.058
Mof_H 	H 	0.0832	0.3816	0.7395	0.048
Mof_C 	C 	0.0646	0.4427	0.7352	-0.027
Mof_H 	H 	0.0806	0.4494	0.7113	0.033
Mof_C 	C 	0.0393	0.4734	0.7539	-0.007
Mof_C 	C 	0.0154	0.4634	0.7895	-0.038
Mof_H 	H 	0.9984	0.484	0.802	0.039
Mof_C 	C 	0.017	0.4229	0.8063	-0.037
Mof_H 	H 	0.001	0.4162	0.8302	0.028
Mof_N 	N 	0.5284	0.79455	0.341	-0.283
Mof_C 	C 	0.51565	0.83493	0.3322	0.077
Mof_H 	H 	0.4904	0.8474	0.341	-0.022
Mof_N 	N 	0.5464	0.85376	0.3084	-0.133
Mof_C 	C 	0.5781	0.825	0.3024	0.004
Mof_H 	H 	0.603	0.8296	0.2872	0.023
Mof_C 	C 	0.567	0.78843	0.3225	-0.009
Mof_H 	H 	0.583	0.7637	0.3235	0.001
Mof_C 	C 	0.5468	0.8999	0.2968	0.053
Mof_C 	C 	0.5846	0.9198	0.2865	-0.065
Mof_H 	H 	0.6103	0.9059	0.2908	0.051
Mof_C 	C 	0.5842	0.9605	0.2698	-0.034
Mof_H 	H 	0.6096	0.9739	0.2628	0.033
Mof_C 	C 	0.546	0.9812	0.2634	0.015
Mof_C 	C 	0.5081	0.9613	0.2737	-0.02
Mof_H 	H 	0.4825	0.9753	0.2694	0.019
Mof_C 	C 	0.5086	0.9207	0.2904	-0.075
Mof_H 	H 	0.4832	0.9073	0.2973	0.046
Mof_C 	C 	0.5423	0.8923	0.2876	0.027
Mof_C 	C 	0.5662	0.9022	0.2521	-0.049
Mof_H 	H 	0.5832	0.8816	0.2395	0.045
Mof_C 	C 	0.5646	0.9427	0.2352	-0.031
Mof_H 	H 	0.5806	0.9494	0.2113	0.037
Mof_C 	C 	0.5393	0.9734	0.2539	-0.001
Mof_C 	C 	0.5154	0.9634	0.2895	-0.022
Mof_H 	H 	0.4984	0.984	0.302	0.03
Mof_C 	C 	0.517	0.9229	0.3063	-0.018
Mof_H 	H 	0.501	0.9162	0.3302	0.028
Mof_N 	N 	0.4716	0.70545	0.341	-0.283
Mof_C 	C 	0.48435	0.66507	0.3322	0.077
Mof_H 	H 	0.5096	0.6526	0.341	-0.022
Mof_N 	N 	0.4536	0.64624	0.3084	-0.133
Mof_C 	C 	0.4219	0.675	0.3024	0.004
Mof_H 	H 	0.397	0.6704	0.2872	0.023
Mof_C 	C 	0.433	0.71157	0.3225	-0.009
Mof_H 	H 	0.417	0.7363	0.3235	0.001
Mof_C 	C 	0.4532	0.6001	0.2968	0.055
Mof_C 	C 	0.4154	0.5802	0.2865	-0.067
Mof_H 	H 	0.3897	0.5941	0.2908	0.052
Mof_C 	C 	0.4158	0.5395	0.2698	-0.033
Mof_H 	H 	0.3904	0.5261	0.2628	0.028
Mof_C 	C 	0.454	0.5188	0.2634	0.012
Mof_C 	C 	0.4919	0.5387	0.2737	-0.019
Mof_H 	H 	0.5175	0.5247	0.2694	0.016
Mof_C 	C 	0.4914	0.5793	0.2904	-0.078
Mof_H 	H 	0.5168	0.5927	0.2973	0.047
Mof_C 	C 	0.4577	0.6077	0.2876	0.027
Mof_C 	C 	0.4338	0.5978	0.2521	-0.052
Mof_H 	H 	0.4168	0.6184	0.2395	0.046
Mof_C 	C 	0.4354	0.5573	0.2352	-0.026
Mof_H 	H 	0.4194	0.5506	0.2113	0.033
Mof_C 	C 	0.4607	0.5266	0.2539	-0.011
Mof_C 	C 	0.4846	0.5366	0.2895	-0.016
Mof_H 	H 	0.5016	0.516	0.302	0.024
Mof_C 	C 	0.483	0.5771	0.3063	-0.019
Mof_H 	H 	0.499	0.5838	0.3302	0.028
Mof_N 	N 	0.9716	0.20545	0.841	-0.283
Mof_C 	C 	0.98435	0.16507	0.8322	0.099
Mof_H 	H 	0.0096	0.1526	0.841	-0.036
Mof_N 	N 	0.9536	0.14624	0.8084	-0.136
Mof_C 	C 	0.9219	0.175	0.8024	0.004
Mof_H 	H 	0.897	0.1704	0.7872	0.023
Mof_C 	C 	0.933	0.21157	0.8225	-0.009
Mof_H 	H 	0.917	0.2363	0.8235	0.002
Mof_C 	C 	0.9532	0.1001	0.7968	0.062
Mof_C 	C 	0.9154	0.0802	0.7865	-0.074
Mof_H 	H 	0.8897	0.0941	0.7908	0.054
Mof_C 	C 	0.9158	0.0395	0.7698	-0.029
Mof_H 	H 	0.8904	0.0261	0.7628	0.023
Mof_C 	C 	0.954	0.0188	0.7634	0.009
Mof_C 	C 	0.9919	0.0387	0.7737	-0.016
Mof_H 	H 	0.0175	0.0247	0.7694	0.007
Mof_C 	C 	0.9914	0.0793	0.7904	-0.097
Mof_H 	H 	0.0168	0.0927	0.7973	0.045
Mof_C 	C 	0.9577	0.1077	0.7876	0.024
Mof_C 	C 	0.9338	0.0978	0.7521	-0.049
Mof_H 	H 	0.9168	0.1184	0.7395	0.046
Mof_C 	C 	0.9354	0.0573	0.7352	-0.019
Mof_H 	H 	0.9194	0.0506	0.7113	0.029
Mof_C 	C 	0.9607	0.0266	0.7539	-0.024
Mof_C 	C 	0.9846	0.0366	0.7895	0.012
Mof_H 	H 	0.0016	0.016	0.802	0.005
Mof_C 	C 	0.983	0.0771	0.8063	-0.002
Mof_H 	H 	0.999	0.0838	0.8302	0.029
Mof_N 	N 	0.9716	0.79455	0.659	-0.283
Mof_C 	C 	0.98435	0.83493	0.6678	0.099
Mof_H 	H 	0.0096	0.8474	0.659	-0.036
Mof_N 	N 	0.9536	0.85376	0.6916	-0.135
Mof_C 	C 	0.9219	0.825	0.6976	0.004
Mof_H 	H 	0.897	0.8296	0.7128	0.023
Mof_C 	C 	0.933	0.78843	0.6775	-0.009
Mof_H 	H 	0.917	0.7637	0.6765	0.001
Mof_C 	C 	0.9532	0.8999	0.7032	0.059
Mof_C 	C 	0.9154	0.9198	0.7135	-0.072
Mof_H 	H 	0.8897	0.9059	0.7092	0.053
Mof_C 	C 	0.9158	0.9605	0.7302	-0.032
Mof_H 	H 	0.8904	0.9739	0.7372	0.032
Mof_C 	C 	0.954	0.9812	0.7366	0.016
Mof_C 	C 	0.9919	0.9613	0.7263	-0.019
Mof_H 	H 	0.0175	0.9753	0.7306	0.014
Mof_C 	C 	0.9914	0.9207	0.7096	-0.092
Mof_H 	H 	0.0168	0.9073	0.7027	0.043
Mof_C 	C 	0.9577	0.8923	0.7124	0.022
Mof_C 	C 	0.9338	0.9022	0.7479	-0.043
Mof_H 	H 	0.9168	0.8816	0.7605	0.044
Mof_C 	C 	0.9354	0.9427	0.7648	-0.03
Mof_H 	H 	0.9194	0.9494	0.7887	0.038
Mof_C 	C 	0.9607	0.9734	0.7461	-0.005
Mof_C 	C 	0.9846	0.9634	0.7105	0
Mof_H 	H 	0.0016	0.984	0.698	0.016
Mof_C 	C 	0.983	0.9229	0.6937	0.001
Mof_H 	H 	0.999	0.9162	0.6698	0.029
Mof_N 	N 	0.4716	0.29455	0.159	-0.283
Mof_C 	C 	0.48435	0.33493	0.1678	0.077
Mof_H 	H 	0.5096	0.3474	0.159	-0.022
Mof_N 	N 	0.4536	0.35376	0.1916	-0.133
Mof_C 	C 	0.4219	0.325	0.1976	0.004
Mof_H 	H 	0.397	0.3296	0.2128	0.023
Mof_C 	C 	0.433	0.28843	0.1775	-0.009
Mof_H 	H 	0.417	0.2637	0.1765	0.001
Mof_C 	C 	0.4532	0.3999	0.2032	0.055
Mof_C 	C 	0.4154	0.4198	0.2135	-0.067
Mof_H 	H 	0.3897	0.4059	0.2092	0.052
Mof_C 	C 	0.4158	0.4605	0.2302	-0.033
Mof_H 	H 	0.3904	0.4739	0.2372	0.028
Mof_C 	C 	0.454	0.4812	0.2366	0.012
Mof_C 	C 	0.4919	0.4613	0.2263	-0.019
Mof_H 	H 	0.5175	0.4753	0.2306	0.016
Mof_C 	C 	0.4914	0.4207	0.2096	-0.078
Mof_H 	H 	0.5168	0.4073	0.2027	0.047
Mof_C 	C 	0.4577	0.3923	0.2124	0.027
Mof_C 	C 	0.4338	0.4022	0.2479	-0.052
Mof_H 	H 	0.4168	0.3816	0.2605	0.046
Mof_C 	C 	0.4354	0.4427	0.2648	-0.025
Mof_H 	H 	0.4194	0.4494	0.2887	0.033
Mof_C 	C 	0.4607	0.4734	0.2461	-0.011
Mof_C 	C 	0.4846	0.4634	0.2105	-0.016
Mof_H 	H 	0.5016	0.484	0.198	0.024
Mof_C 	C 	0.483	0.4229	0.1937	-0.019
Mof_H 	H 	0.499	0.4162	0.1698	0.028
Mof_N 	N 	0.5284	0.20545	0.159	-0.283
Mof_C 	C 	0.51565	0.16507	0.1678	0.077
Mof_H 	H 	0.4904	0.1526	0.159	-0.022
Mof_N 	N 	0.5464	0.14624	0.1916	-0.134
Mof_C 	C 	0.5781	0.175	0.1976	0.004
Mof_H 	H 	0.603	0.1704	0.2128	0.023
Mof_C 	C 	0.567	0.21157	0.1775	-0.01
Mof_H 	H 	0.583	0.2363	0.1765	0.001
Mof_C 	C 	0.5468	0.1001	0.2032	0.056
Mof_C 	C 	0.5846	0.0802	0.2135	-0.068
Mof_H 	H 	0.6103	0.0941	0.2092	0.052
Mof_C 	C 	0.5842	0.0395	0.2302	-0.032
Mof_H 	H 	0.6096	0.0261	0.2372	0.024
Mof_C 	C 	0.546	0.0188	0.2366	0.008
Mof_C 	C 	0.5081	0.0387	0.2263	-0.018
Mof_H 	H 	0.4825	0.0247	0.2306	0.012
Mof_C 	C 	0.5086	0.0793	0.2096	-0.081
Mof_H 	H 	0.4832	0.0927	0.2027	0.048
Mof_C 	C 	0.5423	0.1077	0.2124	0.028
Mof_C 	C 	0.5662	0.0978	0.2479	-0.055
Mof_H 	H 	0.5832	0.1184	0.2605	0.047
Mof_C 	C 	0.5646	0.0573	0.2648	-0.02
Mof_H 	H 	0.5806	0.0506	0.2887	0.029
Mof_C 	C 	0.5393	0.0266	0.2461	-0.02
Mof_C 	C 	0.5154	0.0366	0.2105	-0.01
Mof_H 	H 	0.4984	0.016	0.198	0.018
Mof_C 	C 	0.517	0.0771	0.1937	-0.02
Mof_H 	H 	0.501	0.0838	0.1698	0.027
Mof_N 	N 	0.0284	0.70545	0.659	-0.281
Mof_C 	C 	0.01565	0.66507	0.6678	0.056
Mof_H 	H 	0.9904	0.6526	0.659	-0.007
Mof_N 	N 	0.0464	0.64624	0.6916	-0.131
Mof_C 	C 	0.0781	0.675	0.6976	0.003
Mof_H 	H 	0.103	0.6704	0.7128	0.023
Mof_C 	C 	0.067	0.71157	0.6775	-0.01
Mof_H 	H 	0.083	0.7363	0.6765	0.001
Mof_C 	C 	0.0468	0.6001	0.7032	0.049
Mof_C 	C 	0.0846	0.5802	0.7135	-0.06
Mof_H 	H 	0.1103	0.5941	0.7092	0.049
Mof_C 	C 	0.0842	0.5395	0.7302	-0.035
Mof_H 	H 	0.1096	0.5261	0.7372	0.029
Mof_C 	C 	0.046	0.5188	0.7366	0.011
Mof_C 	C 	0.0081	0.5387	0.7263	-0.021
Mof_H 	H 	0.9825	0.5247	0.7306	0.021
Mof_C 	C 	0.0086	0.5793	0.7096	-0.061
Mof_H 	H 	0.9832	0.5927	0.7027	0.05
Mof_C 	C 	0.0423	0.6077	0.7124	0.032
Mof_C 	C 	0.0662	0.5978	0.7479	-0.058
Mof_H 	H 	0.0832	0.6184	0.7605	0.048
Mof_C 	C 	0.0646	0.5573	0.7648	-0.026
Mof_H 	H 	0.0806	0.5506	0.7887	0.033
Mof_C 	C 	0.0393	0.5266	0.7461	-0.007
Mof_C 	C 	0.0154	0.5366	0.7105	-0.038
Mof_H 	H 	0.9984	0.516	0.698	0.038
Mof_C 	C 	0.017	0.5771	0.6937	-0.037
Mof_H 	H 	0.001	0.5838	0.6698	0.027
Mof_Zn	Zn	0.5	0.25	0.125	1.173
Mof_Zn	Zn	-4.09627e-33	0.75	0.625	1.17
Mof_Zn	Zn	-9.59856e-33	0.25	0.875	1.17
Mof_Zn	Zn	0.5	0.75	0.375	1.173
Mof_N 	N 	0.7216	0.409	0.54455	-0.283
Mof_C 	C 	0.73435	0.4178	0.58493	0.077
Mof_H 	H 	0.7596	0.409	0.5974	-0.022
Mof_N 	N 	0.7036	0.4416	0.60376	-0.133
Mof_C 	C 	0.6719	0.4476	0.575	0.004
Mof_H 	H 	0.647	0.4628	0.5796	0.023
Mof_C 	C 	0.683	0.4275	0.53843	-0.009
Mof_H 	H 	0.667	0.4265	0.5137	0.001
Mof_C 	C 	0.7032	0.4532	0.6499	0.055
Mof_C 	C 	0.6654	0.4635	0.6698	-0.067
Mof_H 	H 	0.6397	0.4592	0.6559	0.052
Mof_C 	C 	0.6658	0.4802	0.7105	-0.033
Mof_H 	H 	0.6404	0.4872	0.7239	0.028
Mof_C 	C 	0.704	0.4866	0.7312	0.012
Mof_C 	C 	0.7419	0.4763	0.7113	-0.019
Mof_H 	H 	0.7675	0.4806	0.7253	0.016
Mof_C 	C 	0.7414	0.4596	0.6707	-0.078
Mof_H 	H 	0.7668	0.4527	0.6573	0.047
Mof_C 	C 	0.7077	0.4624	0.6423	0.027
Mof_C 	C 	0.6838	0.4979	0.6522	-0.052
Mof_H 	H 	0.6668	0.5105	0.6316	0.046
Mof_C 	C 	0.6854	0.5148	0.6927	-0.026
Mof_H 	H 	0.6694	0.5387	0.6994	0.033
Mof_C 	C 	0.7107	0.4961	0.7234	-0.011
Mof_C 	C 	0.7346	0.4605	0.7134	-0.016
Mof_H 	H 	0.7516	0.448	0.734	0.024
Mof_C 	C 	0.733	0.4437	0.6729	-0.019
Mof_H 	H 	0.749	0.4198	0.6662	0.028
Mof_N 	N 	0.2216	0.909	0.04455	-0.284
Mof_C 	C 	0.23435	0.9178	0.08493	0.077
Mof_H 	H 	0.2596	0.909	0.0974	-0.022
Mof_N 	N 	0.2036	0.9416	0.10376	-0.132
Mof_C 	C 	0.1719	0.9476	0.075	0.003
Mof_H 	H 	0.147	0.9628	0.0796	0.025
Mof_C 	C 	0.183	0.9275	0.03843	-0.01
Mof_H 	H 	0.167	0.9265	0.0137	-0.002
Mof_C 	C 	0.2032	0.9532	0.1499	0.034
Mof_C 	C 	0.1654	0.9635	0.1698	-0.094
Mof_H 	H 	0.1397	0.9592	0.1559	0.063
Mof_C 	C 	0.1658	0.9802	0.2105	-0.008
Mof_H 	H 	0.1404	0.9872	0.2239	0.022
Mof_C 	C 	0.204	0.9866	0.2312	0.057
Mof_C 	C 	0.2419	0.9763	0.2113	-0.037
Mof_H 	H 	0.2675	0.9806	0.2253	0.026
Mof_C 	C 	0.2414	0.9596	0.1707	-0.071
Mof_H 	H 	0.2668	0.9527	0.1573	0.046
Mof_C 	C 	0.2077	0.9624	0.1423	0.036
Mof_C 	C 	0.1838	0.9979	0.1522	0.017
Mof_H 	H 	0.1668	0.0105	0.1316	0.013
Mof_C 	C 	0.1854	0.0148	0.1927	-0.086
Mof_H 	H 	0.1694	0.0387	0.1994	0.053
Mof_C 	C 	0.2107	0.9961	0.2234	-0.026
Mof_C 	C 	0.2346	0.9605	0.2134	-0.011
Mof_H 	H 	0.2516	0.948	0.234	0.023
Mof_C 	C 	0.233	0.9437	0.1729	-0.014
Mof_H 	H 	0.249	0.9198	0.1662	0.026
Mof_N 	N 	0.2784	0.909	0.95545	-0.28
Mof_C 	C 	0.26565	0.9178	0.91507	0.078
Mof_H 	H 	0.2404	0.909	0.9026	-0.021
Mof_N 	N 	0.2964	0.9416	0.89624	-0.132
Mof_C 	C 	0.3281	0.9476	0.925	0.005
Mof_H 	H 	0.353	0.9628	0.9204	0.027
Mof_C 	C 	0.317	0.9275	0.96157	-0.008
Mof_H 	H 	0.333	0.9265	0.9863	0.006
Mof_C 	C 	0.2968	0.9532	0.8501	0.034
Mof_C 	C 	0.3346	0.9635	0.8302	-0.094
Mof_H 	H 	0.3603	0.9592	0.8441	0.063
Mof_C 	C 	0.3342	0.9802	0.7895	-0.008
Mof_H 	H 	0.3596	0.9872	0.7761	0.022
Mof_C 	C 	0.296	0.9866	0.7688	0.057
Mof_C 	C 	0.2581	0.9763	0.7887	-0.037
Mof_H 	H 	0.2325	0.9806	0.7747	0.026
Mof_C 	C 	0.2586	0.9596	0.8293	-0.072
Mof_H 	H 	0.2332	0.9527	0.8427	0.046
Mof_C 	C 	0.2923	0.9624	0.8577	0.036
Mof_C 	C 	0.3162	0.9979	0.8478	0.017
Mof_H 	H 	0.3332	0.0105	0.8684	0.015
Mof_C 	C 	0.3146	0.0148	0.8073	-0.086
Mof_H 	H 	0.3306	0.0387	0.8006	0.053
Mof_C 	C 	0.2893	0.9961	0.7766	-0.026
Mof_C 	C 	0.2654	0.9605	0.7866	-0.011
Mof_H 	H 	0.2484	0.948	0.766	0.023
Mof_C 	C 	0.267	0.9437	0.8271	-0.014
Mof_H 	H 	0.251	0.9198	0.8338	0.026
Mof_N 	N 	0.7784	0.409	0.45545	-0.283
Mof_C 	C 	0.76565	0.4178	0.41507	0.077
Mof_H 	H 	0.7404	0.409	0.4026	-0.022
Mof_N 	N 	0.7964	0.4416	0.39624	-0.133
Mof_C 	C 	0.8281	0.4476	0.425	0.004
Mof_H 	H 	0.853	0.4628	0.4204	0.024
Mof_C 	C 	0.817	0.4275	0.46157	-0.009
Mof_H 	H 	0.833	0.4265	0.4863	0.001
Mof_C 	C 	0.7968	0.4532	0.3501	0.055
Mof_C 	C 	0.8346	0.4635	0.3302	-0.067
Mof_H 	H 	0.8603	0.4592	0.3441	0.052
Mof_C 	C 	0.8342	0.4802	0.2895	-0.033
Mof_H 	H 	0.8596	0.4872	0.2761	0.029
Mof_C 	C 	0.796	0.4866	0.2688	0.012
Mof_C 	C 	0.7581	0.4763	0.2887	-0.019
Mof_H 	H 	0.7325	0.4806	0.2747	0.016
Mof_C 	C 	0.7586	0.4596	0.3293	-0.078
Mof_H 	H 	0.7332	0.4527	0.3427	0.047
Mof_C 	C 	0.7923	0.4624	0.3577	0.027
Mof_C 	C 	0.8162	0.4979	0.3478	-0.052
Mof_H 	H 	0.8332	0.5105	0.3684	0.047
Mof_C 	C 	0.8146	0.5148	0.3073	-0.025
Mof_H 	H 	0.8306	0.5387	0.3006	0.033
Mof_C 	C 	0.7893	0.4961	0.2766	-0.011
Mof_C 	C 	0.7654	0.4605	0.2866	-0.016
Mof_H 	H 	0.7484	0.448	0.266	0.024
Mof_C 	C 	0.767	0.4437	0.3271	-0.019
Mof_H 	H 	0.751	0.4198	0.3338	0.028
Mof_N 	N 	0.7784	0.591	0.04455	-0.284
Mof_C 	C 	0.76565	0.5822	0.08493	0.077
Mof_H 	H 	0.7404	0.591	0.0974	-0.022
Mof_N 	N 	0.7964	0.5584	0.10376	-0.133
Mof_C 	C 	0.8281	0.5524	0.075	0.003
Mof_H 	H 	0.853	0.5372	0.0796	0.023
Mof_C 	C 	0.817	0.5725	0.03843	-0.01
Mof_H 	H 	0.833	0.5735	0.0137	-0.002
Mof_C 	C 	0.7968	0.5468	0.1499	0.055
Mof_C 	C 	0.8346	0.5365	0.1698	-0.066
Mof_H 	H 	0.8603	0.5408	0.1559	0.052
Mof_C 	C 	0.8342	0.5198	0.2105	-0.033
Mof_H 	H 	0.8596	0.5128	0.2239	0.029
Mof_C 	C 	0.796	0.5134	0.2312	0.012
Mof_C 	C 	0.7581	0.5237	0.2113	-0.019
Mof_H 	H 	0.7325	0.5194	0.2253	0.016
Mof_C 	C 	0.7586	0.5404	0.1707	-0.078
Mof_H 	H 	0.7332	0.5473	0.1573	0.047
Mof_C 	C 	0.7923	0.5376	0.1423	0.027
Mof_C 	C 	0.8162	0.5021	0.1522	-0.052
Mof_H 	H 	0.8332	0.4895	0.1316	0.046
Mof_C 	C 	0.8146	0.4852	0.1927	-0.025
Mof_H 	H 	0.8306	0.4613	0.1994	0.033
Mof_C 	C 	0.7893	0.5039	0.2234	-0.01
Mof_C 	C 	0.7654	0.5395	0.2134	-0.016
Mof_H 	H 	0.7484	0.552	0.234	0.024
Mof_C 	C 	0.767	0.5563	0.1729	-0.019
Mof_H 	H 	0.751	0.5802	0.1662	0.028
Mof_N 	N 	0.2784	0.091	0.54455	-0.283
Mof_C 	C 	0.26565	0.0822	0.58493	0.077
Mof_H 	H 	0.2404	0.091	0.5974	-0.022
Mof_N 	N 	0.2964	0.0584	0.60376	-0.135
Mof_C 	C 	0.3281	0.0524	0.575	0.003
Mof_H 	H 	0.353	0.0372	0.5796	0.021
Mof_C 	C 	0.317	0.0725	0.53843	-0.01
Mof_H 	H 	0.333	0.0735	0.5137	0
Mof_C 	C 	0.2968	0.0468	0.6499	0.075
Mof_C 	C 	0.3346	0.0365	0.6698	-0.039
Mof_H 	H 	0.3603	0.0408	0.6559	0.04
Mof_C 	C 	0.3342	0.0198	0.7105	-0.058
Mof_H 	H 	0.3596	0.0128	0.7239	0.034
Mof_C 	C 	0.296	0.0134	0.7312	-0.033
Mof_C 	C 	0.2581	0.0237	0.7113	-0.002
Mof_H 	H 	0.2325	0.0194	0.7253	0.006
Mof_C 	C 	0.2586	0.0404	0.6707	-0.084
Mof_H 	H 	0.2332	0.0473	0.6573	0.049
Mof_C 	C 	0.2923	0.0376	0.6423	0.019
Mof_C 	C 	0.3162	0.0021	0.6522	-0.121
Mof_H 	H 	0.3332	0.9895	0.6316	0.078
Mof_C 	C 	0.3146	0.9852	0.6927	0.035
Mof_H 	H 	0.3306	0.9613	0.6994	0.013
Mof_C 	C 	0.2893	0.0039	0.7234	0.004
Mof_C 	C 	0.2654	0.0395	0.7134	-0.021
Mof_H 	H 	0.2484	0.052	0.734	0.026
Mof_C 	C 	0.267	0.0563	0.6729	-0.024
Mof_H 	H 	0.251	0.0802	0.6662	0.03
Mof_N 	N 	0.2216	0.091	0.45545	-0.282
Mof_C 	C 	0.23435	0.0822	0.41507	0.077
Mof_H 	H 	0.2596	0.091	0.4026	-0.022
Mof_N 	N 	0.2036	0.0584	0.39624	-0.135
Mof_C 	C 	0.1719	0.0524	0.425	0.003
Mof_H 	H 	0.147	0.0372	0.4204	0.02
Mof_C 	C 	0.183	0.0725	0.46157	-0.01
Mof_H 	H 	0.167	0.0735	0.4863	-0
Mof_C 	C 	0.2032	0.0468	0.3501	0.075
Mof_C 	C 	0.1654	0.0365	0.3302	-0.039
Mof_H 	H 	0.1397	0.0408	0.3441	0.04
Mof_C 	C 	0.1658	0.0198	0.2895	-0.058
Mof_H 	H 	0.1404	0.0128	0.2761	0.034
Mof_C 	C 	0.204	0.0134	0.2688	-0.033
Mof_C 	C 	0.2419	0.0237	0.2887	-0.002
Mof_H 	H 	0.2675	0.0194	0.2747	0.006
Mof_C 	C 	0.2414	0.0404	0.3293	-0.084
Mof_H 	H 	0.2668	0.0473	0.3427	0.049
Mof_C 	C 	0.2077	0.0376	0.3577	0.019
Mof_C 	C 	0.1838	0.0021	0.3478	-0.12
Mof_H 	H 	0.1668	0.9895	0.3684	0.078
Mof_C 	C 	0.1854	0.9852	0.3073	0.035
Mof_H 	H 	0.1694	0.9613	0.3006	0.013
Mof_C 	C 	0.2107	0.0039	0.2766	0.004
Mof_C 	C 	0.2346	0.0395	0.2866	-0.021
Mof_H 	H 	0.2516	0.052	0.266	0.026
Mof_C 	C 	0.233	0.0563	0.3271	-0.024
Mof_H 	H 	0.249	0.0802	0.3338	0.03
Mof_N 	N 	0.7216	0.591	0.95545	-0.28
Mof_C 	C 	0.73435	0.5822	0.91507	0.078
Mof_H 	H 	0.7596	0.591	0.9026	-0.021
Mof_N 	N 	0.7036	0.5584	0.89624	-0.133
Mof_C 	C 	0.6719	0.5524	0.925	0.005
Mof_H 	H 	0.647	0.5372	0.9204	0.024
Mof_C 	C 	0.683	0.5725	0.96157	-0.009
Mof_H 	H 	0.667	0.5735	0.9863	0.005
Mof_C 	C 	0.7032	0.5468	0.8501	0.055
Mof_C 	C 	0.6654	0.5365	0.8302	-0.067
Mof_H 	H 	0.6397	0.5408	0.8441	0.052
Mof_C 	C 	0.6658	0.5198	0.7895	-0.033
Mof_H 	H 	0.6404	0.5128	0.7761	0.028
Mof_C 	C 	0.704	0.5134	0.7688	0.012
Mof_C 	C 	0.7419	0.5237	0.7887	-0.019
Mof_H 	H 	0.7675	0.5194	0.7747	0.016
Mof_C 	C 	0.7414	0.5404	0.8293	-0.078
Mof_H 	H 	0.7668	0.5473	0.8427	0.047
Mof_C 	C 	0.7077	0.5376	0.8577	0.027
Mof_C 	C 	0.6838	0.5021	0.8478	-0.052
Mof_H 	H 	0.6668	0.4895	0.8684	0.047
Mof_C 	C 	0.6854	0.4852	0.8073	-0.025
Mof_H 	H 	0.6694	0.4613	0.8006	0.033
Mof_C 	C 	0.7107	0.5039	0.7766	-0.011
Mof_C 	C 	0.7346	0.5395	0.7866	-0.016
Mof_H 	H 	0.7516	0.552	0.766	0.024
Mof_C 	C 	0.733	0.5563	0.8271	-0.019
Mof_H 	H 	0.749	0.5802	0.8338	0.028
Mof_N 	N 	0.29455	0.841	0.0284	-0.281
Mof_C 	C 	0.33493	0.8322	0.01565	0.056
Mof_H 	H 	0.3474	0.841	0.9904	-0.007
Mof_N 	N 	0.35376	0.8084	0.0464	-0.131
Mof_C 	C 	0.325	0.8024	0.0781	0.003
Mof_H 	H 	0.3296	0.7872	0.103	0.023
Mof_C 	C 	0.28843	0.8225	0.067	-0.01
Mof_H 	H 	0.2637	0.8235	0.083	0.001
Mof_C 	C 	0.3999	0.7968	0.0468	0.049
Mof_C 	C 	0.4198	0.7865	0.0846	-0.06
Mof_H 	H 	0.4059	0.7908	0.1103	0.049
Mof_C 	C 	0.4605	0.7698	0.0842	-0.035
Mof_H 	H 	0.4739	0.7628	0.1096	0.029
Mof_C 	C 	0.4812	0.7634	0.046	0.01
Mof_C 	C 	0.4613	0.7737	0.0081	-0.021
Mof_H 	H 	0.4753	0.7694	0.9825	0.021
Mof_C 	C 	0.4207	0.7904	0.0086	-0.061
Mof_H 	H 	0.4073	0.7973	0.9832	0.05
Mof_C 	C 	0.3923	0.7876	0.0423	0.032
Mof_C 	C 	0.4022	0.7521	0.0662	-0.058
Mof_H 	H 	0.3816	0.7395	0.0832	0.048
Mof_C 	C 	0.4427	0.7352	0.0646	-0.027
Mof_H 	H 	0.4494	0.7113	0.0806	0.033
Mof_C 	C 	0.4734	0.7539	0.0393	-0.007
Mof_C 	C 	0.4634	0.7895	0.0154	-0.038
Mof_H 	H 	0.484	0.802	0.9984	0.039
Mof_C 	C 	0.4229	0.8063	0.017	-0.037
Mof_H 	H 	0.4162	0.8302	0.001	0.028
Mof_N 	N 	0.79455	0.341	0.5284	-0.283
Mof_C 	C 	0.83493	0.3322	0.51565	0.077
Mof_H 	H 	0.8474	0.341	0.4904	-0.022
Mof_N 	N 	0.85376	0.3084	0.5464	-0.133
Mof_C 	C 	0.825	0.3024	0.5781	0.004
Mof_H 	H 	0.8296	0.2872	0.603	0.023
Mof_C 	C 	0.78843	0.3225	0.567	-0.009
Mof_H 	H 	0.7637	0.3235	0.583	0.001
Mof_C 	C 	0.8999	0.2968	0.5468	0.053
Mof_C 	C 	0.9198	0.2865	0.5846	-0.065
Mof_H 	H 	0.9059	0.2908	0.6103	0.051
Mof_C 	C 	0.9605	0.2698	0.5842	-0.034
Mof_H 	H 	0.9739	0.2628	0.6096	0.033
Mof_C 	C 	0.9812	0.2634	0.546	0.015
Mof_C 	C 	0.9613	0.2737	0.5081	-0.02
Mof_H 	H 	0.9753	0.2694	0.4825	0.019
Mof_C 	C 	0.9207	0.2904	0.5086	-0.075
Mof_H 	H 	0.9073	0.2973	0.4832	0.046
Mof_C 	C 	0.8923	0.2876	0.5423	0.027
Mof_C 	C 	0.9022	0.2521	0.5662	-0.049
Mof_H 	H 	0.8816	0.2395	0.5832	0.045
Mof_C 	C 	0.9427	0.2352	0.5646	-0.031
Mof_H 	H 	0.9494	0.2113	0.5806	0.037
Mof_C 	C 	0.9734	0.2539	0.5393	-0.001
Mof_C 	C 	0.9634	0.2895	0.5154	-0.022
Mof_H 	H 	0.984	0.302	0.4984	0.03
Mof_C 	C 	0.9229	0.3063	0.517	-0.018
Mof_H 	H 	0.9162	0.3302	0.501	0.028
Mof_N 	N 	0.70545	0.341	0.4716	-0.283
Mof_C 	C 	0.66507	0.3322	0.48435	0.077
Mof_H 	H 	0.6526	0.341	0.5096	-0.022
Mof_N 	N 	0.64624	0.3084	0.4536	-0.133
Mof_C 	C 	0.675	0.3024	0.4219	0.004
Mof_H 	H 	0.6704	0.2872	0.397	0.023
Mof_C 	C 	0.71157	0.3225	0.433	-0.009
Mof_H 	H 	0.7363	0.3235	0.417	0.001
Mof_C 	C 	0.6001	0.2968	0.4532	0.055
Mof_C 	C 	0.5802	0.2865	0.4154	-0.067
Mof_H 	H 	0.5941	0.2908	0.3897	0.052
Mof_C 	C 	0.5395	0.2698	0.4158	-0.033
Mof_H 	H 	0.5261	0.2628	0.3904	0.028
Mof_C 	C 	0.5188	0.2634	0.454	0.012
Mof_C 	C 	0.5387	0.2737	0.4919	-0.019
Mof_H 	H 	0.5247	0.2694	0.5175	0.016
Mof_C 	C 	0.5793	0.2904	0.4914	-0.078
Mof_H 	H 	0.5927	0.2973	0.5168	0.047
Mof_C 	C 	0.6077	0.2876	0.4577	0.027
Mof_C 	C 	0.5978	0.2521	0.4338	-0.052
Mof_H 	H 	0.6184	0.2395	0.4168	0.046
Mof_C 	C 	0.5573	0.2352	0.4354	-0.026
Mof_H 	H 	0.5506	0.2113	0.4194	0.033
Mof_C 	C 	0.5266	0.2539	0.4607	-0.011
Mof_C 	C 	0.5366	0.2895	0.4846	-0.016
Mof_H 	H 	0.516	0.302	0.5016	0.024
Mof_C 	C 	0.5771	0.3063	0.483	-0.019
Mof_H 	H 	0.5838	0.3302	0.499	0.028
Mof_N 	N 	0.20545	0.841	0.9716	-0.283
Mof_C 	C 	0.16507	0.8322	0.98435	0.099
Mof_H 	H 	0.1526	0.841	0.0096	-0.036
Mof_N 	N 	0.14624	0.8084	0.9536	-0.136
Mof_C 	C 	0.175	0.8024	0.9219	0.004
Mof_H 	H 	0.1704	0.7872	0.897	0.023
Mof_C 	C 	0.21157	0.8225	0.933	-0.009
Mof_H 	H 	0.2363	0.8235	0.917	0.002
Mof_C 	C 	0.1001	0.7968	0.9532	0.062
Mof_C 	C 	0.0802	0.7865	0.9154	-0.074
Mof_H 	H 	0.0941	0.7908	0.8897	0.054
Mof_C 	C 	0.0395	0.7698	0.9158	-0.029
Mof_H 	H 	0.0261	0.7628	0.8904	0.023
Mof_C 	C 	0.0188	0.7634	0.954	0.009
Mof_C 	C 	0.0387	0.7737	0.9919	-0.016
Mof_H 	H 	0.0247	0.7694	0.0175	0.007
Mof_C 	C 	0.0793	0.7904	0.9914	-0.097
Mof_H 	H 	0.0927	0.7973	0.0168	0.045
Mof_C 	C 	0.1077	0.7876	0.9577	0.024
Mof_C 	C 	0.0978	0.7521	0.9338	-0.049
Mof_H 	H 	0.1184	0.7395	0.9168	0.046
Mof_C 	C 	0.0573	0.7352	0.9354	-0.019
Mof_H 	H 	0.0506	0.7113	0.9194	0.029
Mof_C 	C 	0.0266	0.7539	0.9607	-0.024
Mof_C 	C 	0.0366	0.7895	0.9846	0.012
Mof_H 	H 	0.016	0.802	0.0016	0.005
Mof_C 	C 	0.0771	0.8063	0.983	-0.002
Mof_H 	H 	0.0838	0.8302	0.999	0.029
Mof_N 	N 	0.79455	0.659	0.9716	-0.283
Mof_C 	C 	0.83493	0.6678	0.98435	0.099
Mof_H 	H 	0.8474	0.659	0.0096	-0.036
Mof_N 	N 	0.85376	0.6916	0.9536	-0.135
Mof_C 	C 	0.825	0.6976	0.9219	0.004
Mof_H 	H 	0.8296	0.7128	0.897	0.023
Mof_C 	C 	0.78843	0.6775	0.933	-0.009
Mof_H 	H 	0.7637	0.6765	0.917	0.001
Mof_C 	C 	0.8999	0.7032	0.9532	0.059
Mof_C 	C 	0.9198	0.7135	0.9154	-0.072
Mof_H 	H 	0.9059	0.7092	0.8897	0.053
Mof_C 	C 	0.9605	0.7302	0.9158	-0.032
Mof_H 	H 	0.9739	0.7372	0.8904	0.032
Mof_C 	C 	0.9812	0.7366	0.954	0.016
Mof_C 	C 	0.9613	0.7263	0.9919	-0.019
Mof_H 	H 	0.9753	0.7306	0.0175	0.014
Mof_C 	C 	0.9207	0.7096	0.9914	-0.092
Mof_H 	H 	0.9073	0.7027	0.0168	0.043
Mof_C 	C 	0.8923	0.7124	0.9577	0.022
Mof_C 	C 	0.9022	0.7479	0.9338	-0.043
Mof_H 	H 	0.8816	0.7605	0.9168	0.044
Mof_C 	C 	0.9427	0.7648	0.9354	-0.03
Mof_H 	H 	0.9494	0.7887	0.9194	0.038
Mof_C 	C 	0.9734	0.7461	0.9607	-0.005
Mof_C 	C 	0.9634	0.7105	0.9846	0
Mof_H 	H 	0.984	0.698	0.0016	0.016
Mof_C 	C 	0.9229	0.6937	0.983	0.001
Mof_H 	H 	0.9162	0.6698	0.999	0.029
Mof_N 	N 	0.29455	0.159	0.4716	-0.283
Mof_C 	C 	0.33493	0.1678	0.48435	0.077
Mof_H 	H 	0.3474	0.159	0.5096	-0.022
Mof_N 	N 	0.35376	0.1916	0.4536	-0.133
Mof_C 	C 	0.325	0.1976	0.4219	0.004
Mof_H 	H 	0.3296	0.2128	0.397	0.023
Mof_C 	C 	0.28843	0.1775	0.433	-0.009
Mof_H 	H 	0.2637	0.1765	0.417	0.001
Mof_C 	C 	0.3999	0.2032	0.4532	0.055
Mof_C 	C 	0.4198	0.2135	0.4154	-0.067
Mof_H 	H 	0.4059	0.2092	0.3897	0.052
Mof_C 	C 	0.4605	0.2302	0.4158	-0.033
Mof_H 	H 	0.4739	0.2372	0.3904	0.028
Mof_C 	C 	0.4812	0.2366	0.454	0.012
Mof_C 	C 	0.4613	0.2263	0.4919	-0.019
Mof_H 	H 	0.4753	0.2306	0.5175	0.016
Mof_C 	C 	0.4207	0.2096	0.4914	-0.078
Mof_H 	H 	0.4073	0.2027	0.5168	0.047
Mof_C 	C 	0.3923	0.2124	0.4577	0.027
Mof_C 	C 	0.4022	0.2479	0.4338	-0.052
Mof_H 	H 	0.3816	0.2605	0.4168	0.046
Mof_C 	C 	0.4427	0.2648	0.4354	-0.025
Mof_H 	H 	0.4494	0.2887	0.4194	0.033
Mof_C 	C 	0.4734	0.2461	0.4607	-0.011
Mof_C 	C 	0.4634	0.2105	0.4846	-0.016
Mof_H 	H 	0.484	0.198	0.5016	0.024
Mof_C 	C 	0.4229	0.1937	0.483	-0.019
Mof_H 	H 	0.4162	0.1698	0.499	0.028
Mof_N 	N 	0.20545	0.159	0.5284	-0.283
Mof_C 	C 	0.16507	0.1678	0.51565	0.077
Mof_H 	H 	0.1526	0.159	0.4904	-0.022
Mof_N 	N 	0.14624	0.1916	0.5464	-0.134
Mof_C 	C 	0.175	0.1976	0.5781	0.004
Mof_H 	H 	0.1704	0.2128	0.603	0.023
Mof_C 	C 	0.21157	0.1775	0.567	-0.01
Mof_H 	H 	0.2363	0.1765	0.583	0.001
Mof_C 	C 	0.1001	0.2032	0.5468	0.056
Mof_C 	C 	0.0802	0.2135	0.5846	-0.068
Mof_H 	H 	0.0941	0.2092	0.6103	0.052
Mof_C 	C 	0.0395	0.2302	0.5842	-0.032
Mof_H 	H 	0.0261	0.2372	0.6096	0.024
Mof_C 	C 	0.0188	0.2366	0.546	0.008
Mof_C 	C 	0.0387	0.2263	0.5081	-0.018
Mof_H 	H 	0.0247	0.2306	0.4825	0.012
Mof_C 	C 	0.0793	0.2096	0.5086	-0.081
Mof_H 	H 	0.0927	0.2027	0.4832	0.048
Mof_C 	C 	0.1077	0.2124	0.5423	0.028
Mof_C 	C 	0.0978	0.2479	0.5662	-0.055
Mof_H 	H 	0.1184	0.2605	0.5832	0.047
Mof_C 	C 	0.0573	0.2648	0.5646	-0.02
Mof_H 	H 	0.0506	0.2887	0.5806	0.029
Mof_C 	C 	0.0266	0.2461	0.5393	-0.02
Mof_C 	C 	0.0366	0.2105	0.5154	-0.01
Mof_H 	H 	0.016	0.198	0.4984	0.018
Mof_C 	C 	0.0771	0.1937	0.517	-0.02
Mof_H 	H 	0.0838	0.1698	0.501	0.027
Mof_N 	N 	0.70545	0.659	0.0284	-0.281
Mof_C 	C 	0.66507	0.6678	0.01565	0.056
Mof_H 	H 	0.6526	0.659	0.9904	-0.007
Mof_N 	N 	0.64624	0.6916	0.0464	-0.131
Mof_C 	C 	0.675	0.6976	0.0781	0.003
Mof_H 	H 	0.6704	0.7128	0.103	0.023
Mof_C 	C 	0.71157	0.6775	0.067	-0.01
Mof_H 	H 	0.7363	0.6765	0.083	0.001
Mof_C 	C 	0.6001	0.7032	0.0468	0.049
Mof_C 	C 	0.5802	0.7135	0.0846	-0.06
Mof_H 	H 	0.5941	0.7092	0.1103	0.049
Mof_C 	C 	0.5395	0.7302	0.0842	-0.035
Mof_H 	H 	0.5261	0.7372	0.1096	0.029
Mof_C 	C 	0.5188	0.7366	0.046	0.011
Mof_C 	C 	0.5387	0.7263	0.0081	-0.021
Mof_H 	H 	0.5247	0.7306	0.9825	0.021
Mof_C 	C 	0.5793	0.7096	0.0086	-0.061
Mof_H 	H 	0.5927	0.7027	0.9832	0.05
Mof_C 	C 	0.6077	0.7124	0.0423	0.032
Mof_C 	C 	0.5978	0.7479	0.0662	-0.058
Mof_H 	H 	0.6184	0.7605	0.0832	0.048
Mof_C 	C 	0.5573	0.7648	0.0646	-0.026
Mof_H 	H 	0.5506	0.7887	0.0806	0.033
Mof_C 	C 	0.5266	0.7461	0.0393	-0.007
Mof_C 	C 	0.5366	0.7105	0.0154	-0.038
Mof_H 	H 	0.516	0.698	0.9984	0.038
Mof_C 	C 	0.5771	0.6937	0.017	-0.037
Mof_H 	H 	0.5838	0.6698	0.001	0.027
Mof_Zn	Zn	0.75	0.375	0.5	1.173
Mof_Zn	Zn	0.25	0.875	-0	1.17
Mof_Zn	Zn	0.75	0.625	-0	1.17
Mof_Zn	Zn	0.25	0.125	0.5	1.173
Mof_N 	N 	0.909	0.95545	0.2784	-0.28
Mof_C 	C 	0.9178	0.91507	0.26565	0.078
Mof_H 	H 	0.909	0.9026	0.2404	-0.021
Mof_N 	N 	0.9416	0.89624	0.2964	-0.132
Mof_C 	C 	0.9476	0.925	0.3281	0.005
Mof_H 	H 	0.9628	0.9204	0.353	0.027
Mof_C 	C 	0.9275	0.96157	0.317	-0.008
Mof_H 	H 	0.9265	0.9863	0.333	0.006
Mof_C 	C 	0.9532	0.8501	0.2968	0.034
Mof_C 	C 	0.9635	0.8302	0.3346	-0.094
Mof_H 	H 	0.9592	0.8441	0.3603	0.063
Mof_C 	C 	0.9802	0.7895	0.3342	-0.008
Mof_H 	H 	0.9872	0.7761	0.3596	0.022
Mof_C 	C 	0.9866	0.7688	0.296	0.057
Mof_C 	C 	0.9763	0.7887	0.2581	-0.037
Mof_H 	H 	0.9806	0.7747	0.2325	0.026
Mof_C 	C 	0.9596	0.8293	0.2586	-0.072
Mof_H 	H 	0.9527	0.8427	0.2332	0.046
Mof_C 	C 	0.9624	0.8577	0.2923	0.036
Mof_C 	C 	0.9979	0.8478	0.3162	0.017
Mof_H 	H 	0.0105	0.8684	0.3332	0.015
Mof_C 	C 	0.0148	0.8073	0.3146	-0.086
Mof_H 	H 	0.0387	0.8006	0.3306	0.053
Mof_C 	C 	0.9961	0.7766	0.2893	-0.026
Mof_C 	C 	0.9605	0.7866	0.2654	-0.011
Mof_H 	H 	0.948	0.766	0.2484	0.023
Mof_C 	C 	0.9437	0.8271	0.267	-0.014
Mof_H 	H 	0.9198	0.8338	0.251	0.026
Mof_N 	N 	0.409	0.45545	0.7784	-0.283
Mof_C 	C 	0.4178	0.41507	0.76565	0.077
Mof_H 	H 	0.409	0.4026	0.7404	-0.022
Mof_N 	N 	0.4416	0.39624	0.7964	-0.133
Mof_C 	C 	0.4476	0.425	0.8281	0.004
Mof_H 	H 	0.4628	0.4204	0.853	0.024
Mof_C 	C 	0.4275	0.46157	0.817	-0.009
Mof_H 	H 	0.4265	0.4863	0.833	0.001
Mof_C 	C 	0.4532	0.3501	0.7968	0.055
Mof_C 	C 	0.4635	0.3302	0.8346	-0.067
Mof_H 	H 	0.4592	0.3441	0.8603	0.052
Mof_C 	C 	0.4802	0.2895	0.8342	-0.033
Mof_H 	H 	0.4872	0.2761	0.8596	0.029
Mof_C 	C 	0.4866	0.2688	0.796	0.012
Mof_C 	C 	0.4763	0.2887	0.7581	-0.019
Mof_H 	H 	0.4806	0.2747	0.7325	0.016
Mof_C 	C 	0.4596	0.3293	0.7586	-0.078
Mof_H 	H 	0.4527	0.3427	0.7332	0.047
Mof_C 	C 	0.4624	0.3577	0.7923	0.027
Mof_C 	C 	0.4979	0.3478	0.8162	-0.052
Mof_H 	H 	0.5105	0.3684	0.8332	0.047
Mof_C 	C 	0.5148	0.3073	0.8146	-0.025
Mof_H 	H 	0.5387	0.3006	0.8306	0.033
Mof_C 	C 	0.4961	0.2766	0.7893	-0.011
Mof_C 	C 	0.4605	0.2866	0.7654	-0.016
Mof_H 	H 	0.448	0.266	0.7484	0.024
Mof_C 	C 	0.4437	0.3271	0.767	-0.019
Mof_H 	H 	0.4198	0.3338	0.751	0.028
Mof_N 	N 	0.409	0.54455	0.7216	-0.283
Mof_C 	C 	0.4178	0.58493	0.73435	0.077
Mof_H 	H 	0.409	0.5974	0.7596	-0.022
Mof_N 	N 	0.4416	0.60376	0.7036	-0.133
Mof_C 	C 	0.4476	0.575	0.6719	0.004
Mof_H 	H 	0.4628	0.5796	0.647	0.023
Mof_C 	C 	0.4275	0.53843	0.683	-0.009
Mof_H 	H 	0.4265	0.5137	0.667	0.001
Mof_C 	C 	0.4532	0.6499	0.7032	0.055
Mof_C 	C 	0.4635	0.6698	0.6654	-0.067
Mof_H 	H 	0.4592	0.6559	0.6397	0.052
Mof_C 	C 	0.4802	0.7105	0.6658	-0.033
Mof_H 	H 	0.4872	0.7239	0.6404	0.028
Mof_C 	C 	0.4866	0.7312	0.704	0.012
Mof_C 	C 	0.4763	0.7113	0.7419	-0.019
Mof_H 	H 	0.4806	0.7253	0.7675	0.016
Mof_C 	C 	0.4596	0.6707	0.7414	-0.078
Mof_H 	H 	0.4527	0.6573	0.7668	0.047
Mof_C 	C 	0.4624	0.6423	0.7077	0.027
Mof_C 	C 	0.4979	0.6522	0.6838	-0.052
Mof_H 	H 	0.5105	0.6316	0.6668	0.046
Mof_C 	C 	0.5148	0.6927	0.6854	-0.026
Mof_H 	H 	0.5387	0.6994	0.6694	0.033
Mof_C 	C 	0.4961	0.7234	0.7107	-0.011
Mof_C 	C 	0.4605	0.7134	0.7346	-0.016
Mof_H 	H 	0.448	0.734	0.7516	0.024
Mof_C 	C 	0.4437	0.6729	0.733	-0.019
Mof_H 	H 	0.4198	0.6662	0.749	0.028
Mof_N 	N 	0.909	0.04455	0.2216	-0.284
Mof_C 	C 	0.9178	0.08493	0.23435	0.077
Mof_H 	H 	0.909	0.0974	0.2596	-0.022
Mof_N 	N 	0.9416	0.10376	0.2036	-0.132
Mof_C 	C 	0.9476	0.075	0.1719	0.003
Mof_H 	H 	0.9628	0.0796	0.147	0.025
Mof_C 	C 	0.9275	0.03843	0.183	-0.01
Mof_H 	H 	0.9265	0.0137	0.167	-0.002
Mof_C 	C 	0.9532	0.1499	0.2032	0.034
Mof_C 	C 	0.9635	0.1698	0.1654	-0.094
Mof_H 	H 	0.9592	0.1559	0.1397	0.063
Mof_C 	C 	0.9802	0.2105	0.1658	-0.008
Mof_H 	H 	0.9872	0.2239	0.1404	0.022
Mof_C 	C 	0.9866	0.2312	0.204	0.057
Mof_C 	C 	0.9763	0.2113	0.2419	-0.037
Mof_H 	H 	0.9806	0.2253	0.2675	0.026
Mof_C 	C 	0.9596	0.1707	0.2414	-0.071
Mof_H 	H 	0.9527	0.1573	0.2668	0.046
Mof_C 	C 	0.9624	0.1423	0.2077	0.036
Mof_C 	C 	0.9979	0.1522	0.1838	0.017
Mof_H 	H 	0.0105	0.1316	0.1668	0.013
Mof_C 	C 	0.0148	0.1927	0.1854	-0.086
Mof_H 	H 	0.0387	0.1994	0.1694	0.053
Mof_C 	C 	0.9961	0.2234	0.2107	-0.026
Mof_C 	C 	0.9605	0.2134	0.2346	-0.011
Mof_H 	H 	0.948	0.234	0.2516	0.023
Mof_C 	C 	0.9437	0.1729	0.233	-0.014
Mof_H 	H 	0.9198	0.1662	0.249	0.026
Mof_N 	N 	0.091	0.45545	0.2216	-0.282
Mof_C 	C 	0.0822	0.41507	0.23435	0.077
Mof_H 	H 	0.091	0.4026	0.2596	-0.022
Mof_N 	N 	0.0584	0.39624	0.2036	-0.135
Mof_C 	C 	0.0524	0.425	0.1719	0.003
Mof_H 	H 	0.0372	0.4204	0.147	0.02
Mof_C 	C 	0.0725	0.46157	0.183	-0.01
Mof_H 	H 	0.0735	0.4863	0.167	-0
Mof_C 	C 	0.0468	0.3501	0.2032	0.075
Mof_C 	C 	0.0365	0.3302	0.1654	-0.039
Mof_H 	H 	0.0408	0.3441	0.1397	0.04
Mof_C 	C 	0.0198	0.2895	0.1658	-0.058
Mof_H 	H 	0.0128	0.2761	0.1404	0.034
Mof_C 	C 	0.0134	0.2688	0.204	-0.033
Mof_C 	C 	0.0237	0.2887	0.2419	-0.002
Mof_H 	H 	0.0194	0.2747	0.2675	0.006
Mof_C 	C 	0.0404	0.3293	0.2414	-0.084
Mof_H 	H 	0.0473	0.3427	0.2668	0.049
Mof_C 	C 	0.0376	0.3577	0.2077	0.019
Mof_C 	C 	0.0021	0.3478	0.1838	-0.12
Mof_H 	H 	0.9895	0.3684	0.1668	0.078
Mof_C 	C 	0.9852	0.3073	0.1854	0.035
Mof_H 	H 	0.9613	0.3006	0.1694	0.013
Mof_C 	C 	0.0039	0.2766	0.2107	0.004
Mof_C 	C 	0.0395	0.2866	0.2346	-0.021
Mof_H 	H 	0.052	0.266	0.2516	0.026
Mof_C 	C 	0.0563	0.3271	0.233	-0.024
Mof_H 	H 	0.0802	0.3338	0.249	0.03
Mof_N 	N 	0.591	0.95545	0.7216	-0.28
Mof_C 	C 	0.5822	0.91507	0.73435	0.078
Mof_H 	H 	0.591	0.9026	0.7596	-0.021
Mof_N 	N 	0.5584	0.89624	0.7036	-0.133
Mof_C 	C 	0.5524	0.925	0.6719	0.005
Mof_H 	H 	0.5372	0.9204	0.647	0.024
Mof_C 	C 	0.5725	0.96157	0.683	-0.009
Mof_H 	H 	0.5735	0.9863	0.667	0.005
Mof_C 	C 	0.5468	0.8501	0.7032	0.055
Mof_C 	C 	0.5365	0.8302	0.6654	-0.067
Mof_H 	H 	0.5408	0.8441	0.6397	0.052
Mof_C 	C 	0.5198	0.7895	0.6658	-0.033
Mof_H 	H 	0.5128	0.7761	0.6404	0.028
Mof_C 	C 	0.5134	0.7688	0.704	0.012
Mof_C 	C 	0.5237	0.7887	0.7419	-0.019
Mof_H 	H 	0.5194	0.7747	0.7675	0.016
Mof_C 	C 	0.5404	0.8293	0.7414	-0.078
Mof_H 	H 	0.5473	0.8427	0.7668	0.047
Mof_C 	C 	0.5376	0.8577	0.7077	0.027
Mof_C 	C 	0.5021	0.8478	0.6838	-0.052
Mof_H 	H 	0.4895	0.8684	0.6668	0.047
Mof_C 	C 	0.4852	0.8073	0.6854	-0.025
Mof_H 	H 	0.4613	0.8006	0.6694	0.033
Mof_C 	C 	0.5039	0.7766	0.7107	-0.011
Mof_C 	C 	0.5395	0.7866	0.7346	-0.016
Mof_H 	H 	0.552	0.766	0.7516	0.024
Mof_C 	C 	0.5563	0.8271	0.733	-0.019
Mof_H 	H 	0.5802	0.8338	0.749	0.028
Mof_N 	N 	0.591	0.04455	0.7784	-0.284
Mof_C 	C 	0.5822	0.08493	0.76565	0.077
Mof_H 	H 	0.591	0.0974	0.7404	-0.022
Mof_N 	N 	0.5584	0.10376	0.7964	-0.133
Mof_C 	C 	0.5524	0.075	0.8281	0.003
Mof_H 	H 	0.5372	0.0796	0.853	0.023
Mof_C 	C 	0.5725	0.03843	0.817	-0.01
Mof_H 	H 	0.5735	0.0137	0.833	-0.002
Mof_C 	C 	0.5468	0.1499	0.7968	0.055
Mof_C 	C 	0.5365	0.1698	0.8346	-0.066
Mof_H 	H 	0.5408	0.1559	0.8603	0.052
Mof_C 	C 	0.5198	0.2105	0.8342	-0.033
Mof_H 	H 	0.5128	0.2239	0.8596	0.029
Mof_C 	C 	0.5134	0.2312	0.796	0.012
Mof_C 	C 	0.5237	0.2113	0.7581	-0.019
Mof_H 	H 	0.5194	0.2253	0.7325	0.016
Mof_C 	C 	0.5404	0.1707	0.7586	-0.078
Mof_H 	H 	0.5473	0.1573	0.7332	0.047
Mof_C 	C 	0.5376	0.1423	0.7923	0.027
Mof_C 	C 	0.5021	0.1522	0.8162	-0.052
Mof_H 	H 	0.4895	0.1316	0.8332	0.046
Mof_C 	C 	0.4852	0.1927	0.8146	-0.025
Mof_H 	H 	0.4613	0.1994	0.8306	0.033
Mof_C 	C 	0.5039	0.2234	0.7893	-0.01
Mof_C 	C 	0.5395	0.2134	0.7654	-0.016
Mof_H 	H 	0.552	0.234	0.7484	0.024
Mof_C 	C 	0.5563	0.1729	0.767	-0.019
Mof_H 	H 	0.5802	0.1662	0.751	0.028
Mof_N 	N 	0.091	0.54455	0.2784	-0.283
Mof_C 	C 	0.0822	0.58493	0.26565	0.077
Mof_H 	H 	0.091	0.5974	0.2404	-0.022
Mof_N 	N 	0.0584	0.60376	0.2964	-0.135
Mof_C 	C 	0.0524	0.575	0.3281	0.003
Mof_H 	H 	0.0372	0.5796	0.353	0.021
Mof_C 	C 	0.0725	0.53843	0.317	-0.01
Mof_H 	H 	0.0735	0.5137	0.333	0
Mof_C 	C 	0.0468	0.6499	0.2968	0.075
Mof_C 	C 	0.0365	0.6698	0.3346	-0.039
Mof_H 	H 	0.0408	0.6559	0.3603	0.04
Mof_C 	C 	0.0198	0.7105	0.3342	-0.058
Mof_H 	H 	0.0128	0.7239	0.3596	0.034
Mof_C 	C 	0.0134	0.7312	0.296	-0.033
Mof_C 	C 	0.0237	0.7113	0.2581	-0.002
Mof_H 	H 	0.0194	0.7253	0.2325	0.006
Mof_C 	C 	0.0404	0.6707	0.2586	-0.084
Mof_H 	H 	0.0473	0.6573	0.2332	0.049
Mof_C 	C 	0.0376	0.6423	0.2923	0.019
Mof_C 	C 	0.0021	0.6522	0.3162	-0.121
Mof_H 	H 	0.9895	0.6316	0.3332	0.078
Mof_C 	C 	0.9852	0.6927	0.3146	0.035
Mof_H 	H 	0.9613	0.6994	0.3306	0.013
Mof_C 	C 	0.0039	0.7234	0.2893	0.004
Mof_C 	C 	0.0395	0.7134	0.2654	-0.021
Mof_H 	H 	0.052	0.734	0.2484	0.026
Mof_C 	C 	0.0563	0.6729	0.267	-0.024
Mof_H 	H 	0.0802	0.6662	0.251	0.03
Mof_N 	N 	0.841	0.0284	0.29455	-0.281
Mof_C 	C 	0.8322	0.01565	0.33493	0.056
Mof_H 	H 	0.841	0.9904	0.3474	-0.007
Mof_N 	N 	0.8084	0.0464	0.35376	-0.131
Mof_C 	C 	0.8024	0.0781	0.325	0.003
Mof_H 	H 	0.7872	0.103	0.3296	0.023
Mof_C 	C 	0.8225	0.067	0.28843	-0.01
Mof_H 	H 	0.8235	0.083	0.2637	0.001
Mof_C 	C 	0.7968	0.0468	0.3999	0.049
Mof_C 	C 	0.7865	0.0846	0.4198	-0.06
Mof_H 	H 	0.7908	0.1103	0.4059	0.049
Mof_C 	C 	0.7698	0.0842	0.4605	-0.035
Mof_H 	H 	0.7628	0.1096	0.4739	0.029
Mof_C 	C 	0.7634	0.046	0.4812	0.01
Mof_C 	C 	0.7737	0.0081	0.4613	-0.021
Mof_H 	H 	0.7694	0.9825	0.4753	0.021
Mof_C 	C 	0.7904	0.0086	0.4207	-0.061
Mof_H 	H 	0.7973	0.9832	0.4073	0.05
Mof_C 	C 	0.7876	0.0423	0.3923	0.032
Mof_C 	C 	0.7521	0.0662	0.4022	-0.058
Mof_H 	H 	0.7395	0.0832	0.3816	0.048
Mof_C 	C 	0.7352	0.0646	0.4427	-0.027
Mof_H 	H 	0.7113	0.0806	0.4494	0.033
Mof_C 	C 	0.7539	0.0393	0.4734	-0.007
Mof_C 	C 	0.7895	0.0154	0.4634	-0.038
Mof_H 	H 	0.802	0.9984	0.484	0.039
Mof_C 	C 	0.8063	0.017	0.4229	-0.037
Mof_H 	H 	0.8302	0.001	0.4162	0.028
Mof_N 	N 	0.341	0.5284	0.79455	-0.283
Mof_C 	C 	0.3322	0.51565	0.83493	0.077
Mof_H 	H 	0.341	0.4904	0.8474	-0.022
Mof_N 	N 	0.3084	0.5464	0.85376	-0.133
Mof_C 	C 	0.3024	0.5781	0.825	0.004
Mof_H 	H 	0.2872	0.603	0.8296	0.023
Mof_C 	C 	0.3225	0.567	0.78843	-0.009
Mof_H 	H 	0.3235	0.583	0.7637	0.001
Mof_C 	C 	0.2968	0.5468	0.8999	0.053
Mof_C 	C 	0.2865	0.5846	0.9198	-0.065
Mof_H 	H 	0.2908	0.6103	0.9059	0.051
Mof_C 	C 	0.2698	0.5842	0.9605	-0.034
Mof_H 	H 	0.2628	0.6096	0.9739	0.033
Mof_C 	C 	0.2634	0.546	0.9812	0.015
Mof_C 	C 	0.2737	0.5081	0.9613	-0.02
Mof_H 	H 	0.2694	0.4825	0.9753	0.019
Mof_C 	C 	0.2904	0.5086	0.9207	-0.075
Mof_H 	H 	0.2973	0.4832	0.9073	0.046
Mof_C 	C 	0.2876	0.5423	0.8923	0.027
Mof_C 	C 	0.2521	0.5662	0.9022	-0.049
Mof_H 	H 	0.2395	0.5832	0.8816	0.045
Mof_C 	C 	0.2352	0.5646	0.9427	-0.031
Mof_H 	H 	0.2113	0.5806	0.9494	0.037
Mof_C 	C 	0.2539	0.5393	0.9734	-0.001
Mof_C 	C 	0.2895	0.5154	0.9634	-0.022
Mof_H 	H 	0.302	0.4984	0.984	0.03
Mof_C 	C 	0.3063	0.517	0.9229	-0.018
Mof_H 	H 	0.3302	0.501	0.9162	0.028
Mof_N 	N 	0.341	0.4716	0.70545	-0.283
Mof_C 	C 	0.3322	0.48435	0.66507	0.077
Mof_H 	H 	0.341	0.5096	0.6526	-0.022
Mof_N 	N 	0.3084	0.4536	0.64624	-0.133
Mof_C 	C 	0.3024	0.4219	0.675	0.004
Mof_H 	H 	0.2872	0.397	0.6704	0.023
Mof_C 	C 	0.3225	0.433	0.71157	-0.009
Mof_H 	H 	0.3235	0.417	0.7363	0.001
Mof_C 	C 	0.2968	0.4532	0.6001	0.055
Mof_C 	C 	0.2865	0.4154	0.5802	-0.067
Mof_H 	H 	0.2908	0.3897	0.5941	0.052
Mof_C 	C 	0.2698	0.4158	0.5395	-0.033
Mof_H 	H 	0.2628	0.3904	0.5261	0.028
Mof_C 	C 	0.2634	0.454	0.5188	0.012
Mof_C 	C 	0.2737	0.4919	0.5387	-0.019
Mof_H 	H 	0.2694	0.5175	0.5247	0.016
Mof_C 	C 	0.2904	0.4914	0.5793	-0.078
Mof_H 	H 	0.2973	0.5168	0.5927	0.047
Mof_C 	C 	0.2876	0.4577	0.6077	0.027
Mof_C 	C 	0.2521	0.4338	0.5978	-0.052
Mof_H 	H 	0.2395	0.4168	0.6184	0.046
Mof_C 	C 	0.2352	0.4354	0.5573	-0.026
Mof_H 	H 	0.2113	0.4194	0.5506	0.033
Mof_C 	C 	0.2539	0.4607	0.5266	-0.011
Mof_C 	C 	0.2895	0.4846	0.5366	-0.016
Mof_H 	H 	0.302	0.5016	0.516	0.024
Mof_C 	C 	0.3063	0.483	0.5771	-0.019
Mof_H 	H 	0.3302	0.499	0.5838	0.028
Mof_N 	N 	0.841	0.9716	0.20545	-0.283
Mof_C 	C 	0.8322	0.98435	0.16507	0.099
Mof_H 	H 	0.841	0.0096	0.1526	-0.036
Mof_N 	N 	0.8084	0.9536	0.14624	-0.136
Mof_C 	C 	0.8024	0.9219	0.175	0.004
Mof_H 	H 	0.7872	0.897	0.1704	0.023
Mof_C 	C 	0.8225	0.933	0.21157	-0.009
Mof_H 	H 	0.8235	0.917	0.2363	0.002
Mof_C 	C 	0.7968	0.9532	0.1001	0.062
Mof_C 	C 	0.7865	0.9154	0.0802	-0.074
Mof_H 	H 	0.7908	0.8897	0.0941	0.054
Mof_C 	C 	0.7698	0.9158	0.0395	-0.029
Mof_H 	H 	0.7628	0.8904	0.0261	0.023
Mof_C 	C 	0.7634	0.954	0.0188	0.009
Mof_C 	C 	0.7737	0.9919	0.0387	-0.016
Mof_H 	H 	0.7694	0.0175	0.0247	0.007
Mof_C 	C 	0.7904	0.9914	0.0793	-0.097
Mof_H 	H 	0.7973	0.0168	0.0927	0.045
Mof_C 	C 	0.7876	0.9577	0.1077	0.024
Mof_C 	C 	0.7521	0.9338	0.0978	-0.049
Mof_H 	H 	0.7395	0.9168	0.1184	0.046
Mof_C 	C 	0.7352	0.9354	0.0573	-0.019
Mof_H 	H 	0.7113	0.9194	0.0506	0.029
Mof_C 	C 	0.7539	0.9607	0.0266	-0.024
Mof_C 	C 	0.7895	0.9846	0.0366	0.012
Mof_H 	H 	0.802	0.0016	0.016	0.005
Mof_C 	C 	0.8063	0.983	0.0771	-0.002
Mof_H 	H 	0.8302	0.999	0.0838	0.029
Mof_N 	N 	0.659	0.9716	0.79455	-0.283
Mof_C 	C 	0.6678	0.98435	0.83493	0.099
Mof_H 	H 	0.659	0.0096	0.8474	-0.036
Mof_N 	N 	0.6916	0.9536	0.85376	-0.135
Mof_C 	C 	0.6976	0.9219	0.825	0.004
Mof_H 	H 	0.7128	0.897	0.8296	0.023
Mof_C 	C 	0.6775	0.933	0.78843	-0.009
Mof_H 	H 	0.6765	0.917	0.7637	0.001
Mof_C 	C 	0.7032	0.9532	0.8999	0.059
Mof_C 	C 	0.7135	0.9154	0.9198	-0.072
Mof_H 	H 	0.7092	0.8897	0.9059	0.053
Mof_C 	C 	0.7302	0.9158	0.9605	-0.032
Mof_H 	H 	0.7372	0.8904	0.9739	0.032
Mof_C 	C 	0.7366	0.954	0.9812	0.016
Mof_C 	C 	0.7263	0.9919	0.9613	-0.019
Mof_H 	H 	0.7306	0.0175	0.9753	0.014
Mof_C 	C 	0.7096	0.9914	0.9207	-0.092
Mof_H 	H 	0.7027	0.0168	0.9073	0.043
Mof_C 	C 	0.7124	0.9577	0.8923	0.022
Mof_C 	C 	0.7479	0.9338	0.9022	-0.043
Mof_H 	H 	0.7605	0.9168	0.8816	0.044
Mof_C 	C 	0.7648	0.9354	0.9427	-0.03
Mof_H 	H 	0.7887	0.9194	0.9494	0.038
Mof_C 	C 	0.7461	0.9607	0.9734	-0.005
Mof_C 	C 	0.7105	0.9846	0.9634	0
Mof_H 	H 	0.698	0.0016	0.984	0.016
Mof_C 	C 	0.6937	0.983	0.9229	0.001
Mof_H 	H 	0.6698	0.999	0.9162	0.029
Mof_N 	N 	0.159	0.4716	0.29455	-0.283
Mof_C 	C 	0.1678	0.48435	0.33493	0.077
Mof_H 	H 	0.159	0.5096	0.3474	-0.022
Mof_N 	N 	0.1916	0.4536	0.35376	-0.133
Mof_C 	C 	0.1976	0.4219	0.325	0.004
Mof_H 	H 	0.2128	0.397	0.3296	0.023
Mof_C 	C 	0.1775	0.433	0.28843	-0.009
Mof_H 	H 	0.1765	0.417	0.2637	0.001
Mof_C 	C 	0.2032	0.4532	0.3999	0.055
Mof_C 	C 	0.2135	0.4154	0.4198	-0.067
Mof_H 	H 	0.2092	0.3897	0.4059	0.052
Mof_C 	C 	0.2302	0.4158	0.4605	-0.033
Mof_H 	H 	0.2372	0.3904	0.4739	0.028
Mof_C 	C 	0.2366	0.454	0.4812	0.012
Mof_C 	C 	0.2263	0.4919	0.4613	-0.019
Mof_H 	H 	0.2306	0.5175	0.4753	0.016
Mof_C 	C 	0.2096	0.4914	0.4207	-0.078
Mof_H 	H 	0.2027	0.5168	0.4073	0.047
Mof_C 	C 	0.2124	0.4577	0.3923	0.027
Mof_C 	C 	0.2479	0.4338	0.4022	-0.052
Mof_H 	H 	0.2605	0.4168	0.3816	0.046
Mof_C 	C 	0.2648	0.4354	0.4427	-0.025
Mof_H 	H 	0.2887	0.4194	0.4494	0.033
Mof_C 	C 	0.2461	0.4607	0.4734	-0.011
Mof_C 	C 	0.2105	0.4846	0.4634	-0.016
Mof_H 	H 	0.198	0.5016	0.484	0.024
Mof_C 	C 	0.1937	0.483	0.4229	-0.019
Mof_H 	H 	0.1698	0.499	0.4162	0.028
Mof_N 	N 	0.159	0.5284	0.20545	-0.283
Mof_C 	C 	0.1678	0.51565	0.16507	0.077
Mof_H 	H 	0.159	0.4904	0.1526	-0.022
Mof_N 	N 	0.1916	0.5464	0.14624	-0.134
Mof_C 	C 	0.1976	0.5781	0.175	0.004
Mof_H 	H 	0.2128	0.603	0.1704	0.023
Mof_C 	C 	0.1775	0.567	0.21157	-0.01
Mof_H 	H 	0.1765	0.583	0.2363	0.001
Mof_C 	C 	0.2032	0.5468	0.1001	0.056
Mof_C 	C 	0.2135	0.5846	0.0802	-0.068
Mof_H 	H 	0.2092	0.6103	0.0941	0.052
Mof_C 	C 	0.2302	0.5842	0.0395	-0.032
Mof_H 	H 	0.2372	0.6096	0.0261	0.024
Mof_C 	C 	0.2366	0.546	0.0188	0.008
Mof_C 	C 	0.2263	0.5081	0.0387	-0.018
Mof_H 	H 	0.2306	0.4825	0.0247	0.012
Mof_C 	C 	0.2096	0.5086	0.0793	-0.081
Mof_H 	H 	0.2027	0.4832	0.0927	0.048
Mof_C 	C 	0.2124	0.5423	0.1077	0.028
Mof_C 	C 	0.2479	0.5662	0.0978	-0.055
Mof_H 	H 	0.2605	0.5832	0.1184	0.047
Mof_C 	C 	0.2648	0.5646	0.0573	-0.02
Mof_H 	H 	0.2887	0.5806	0.0506	0.029
Mof_C 	C 	0.2461	0.5393	0.0266	-0.02
Mof_C 	C 	0.2105	0.5154	0.0366	-0.01
Mof_H 	H 	0.198	0.4984	0.016	0.018
Mof_C 	C 	0.1937	0.517	0.0771	-0.02
Mof_H 	H 	0.1698	0.501	0.0838	0.027
Mof_N 	N 	0.659	0.0284	0.70545	-0.281
Mof_C 	C 	0.6678	0.01565	0.66507	0.056
Mof_H 	H 	0.659	0.9904	0.6526	-0.007
Mof_N 	N 	0.6916	0.0464	0.64624	-0.131
Mof_C 	C 	0.6976	0.0781	0.675	0.003
Mof_H 	H 	0.7128	0.103	0.6704	0.023
Mof_C 	C 	0.6775	0.067	0.71157	-0.01
Mof_H 	H 	0.6765	0.083	0.7363	0.001
Mof_C 	C 	0.7032	0.0468	0.6001	0.049
Mof_C 	C 	0.7135	0.0846	0.5802	-0.06
Mof_H 	H 	0.7092	0.1103	0.5941	0.049
Mof_C 	C 	0.7302	0.0842	0.5395	-0.035
Mof_H 	H 	0.7372	0.1096	0.5261	0.029
Mof_C 	C 	0.7366	0.046	0.5188	0.011
Mof_C 	C 	0.7263	0.0081	0.5387	-0.021
Mof_H 	H 	0.7306	0.9825	0.5247	0.021
Mof_C 	C 	0.7096	0.0086	0.5793	-0.061
Mof_H 	H 	0.7027	0.9832	0.5927	0.05
Mof_C 	C 	0.7124	0.0423	0.6077	0.032
Mof_C 	C 	0.7479	0.0662	0.5978	-0.058
Mof_H 	H 	0.7605	0.0832	0.6184	0.048
Mof_C 	C 	0.7648	0.0646	0.5573	-0.026
Mof_H 	H 	0.7887	0.0806	0.5506	0.033
Mof_C 	C 	0.7461	0.0393	0.5266	-0.007
Mof_C 	C 	0.7105	0.0154	0.5366	-0.038
Mof_H 	H 	0.698	0.9984	0.516	0.038
Mof_C 	C 	0.6937	0.017	0.5771	-0.037
Mof_H 	H 	0.6698	0.001	0.5838	0.027
Mof_Zn	Zn	0.875	0	0.25	1.17
Mof_Zn	Zn	0.375	0.5	0.75	1.173
Mof_Zn	Zn	0.125	0.5	0.25	1.173
Mof_Zn	Zn	0.625	0	0.75	1.17
_end
