data_functionalizedCrystal
_audit_creation_method	'EQeq! by Chris Wilmer'
_symmetry_space_group_name_H-M	'P1'
_symmetry_Int_Tables_number	1
_symmetry_cell_setting	triclinic
loop_
_symmetry_equiv_pos_as_xyz
  x,y,z
_cell_length_a	28.13
_cell_length_b	14.427
_cell_length_c	10.38
_cell_angle_alpha	90
_cell_angle_beta	90
_cell_angle_gamma	90
loop_
_atom_site_label
_atom_site_type_symbol
_atom_site_fract_x
_atom_site_fract_y
_atom_site_fract_z
_atom_site_charge
Mof_Zn	Zn	0.19359	0.03501	0.56784	1.194
Mof_O 	O 	0.12932	0.9864	0.5691	-0.43
Mof_N 	N 	0.19508	0.171	0.5996	-0.26
Mof_N 	N 	0.23819	0.0151	0.4182	-0.266
Mof_N 	N 	0.2772	0.0094	0.2359	-0.257
Mof_C 	C 	0.1026	0.0293	0.4746	0.265
Mof_N 	N 	0.2108	0.2044	0.7214	-0.068
Mof_C 	C 	0.2359	0.0007	0.2918	0.213
Mof_N 	N 	0.286	0.0275	0.4416	-0.077
Mof_C 	C 	0.0491	0.0123	0.4876	-0.042
Mof_O 	O 	0.11932	0.07	0.3833	-0.316
Mof_N 	N 	0.1937	0.9881	0.2277	-0.31
Mof_N 	N 	0.3097	0.0271	0.3365	-0.064
Mof_C 	C 	0.0193	0.0427	0.3938	-0.027
Mof_C 	C 	0.03	0.9637	0.5966	-0.026
Mof_H 	H 	0.1655	0.1961	0.3692	0.062
Mof_H 	H 	0.166	0.9882	0.2712	0.141
Mof_H 	H 	0.1938	0.9787	0.142	0.131
Mof_H 	H 	0.0331	0.0682	0.3171	0.056
Mof_H 	H 	0.0506	0.9354	0.6589	0.058
Mof_H 	H 	0.1627	0.3039	0.3718	0.056
Mof_Zn	Zn	0.30641	0.96499	0.06784	1.192
Mof_O 	O 	0.37068	0.0136	0.0691	-0.431
Mof_N 	N 	0.30492	0.829	0.0996	-0.261
Mof_N 	N 	0.26181	0.9849	0.9182	-0.264
Mof_N 	N 	0.2228	0.9906	0.7359	-0.257
Mof_C 	C 	0.3974	0.9707	0.9746	0.269
Mof_N 	N 	0.2892	0.7956	0.2214	-0.068
Mof_C 	C 	0.2641	0.9993	0.7918	0.214
Mof_N 	N 	0.214	0.9725	0.9416	-0.074
Mof_C 	C 	0.4509	0.9877	0.9876	-0.038
Mof_O 	O 	0.38068	0.93	0.8833	-0.316
Mof_N 	N 	0.3063	0.0119	0.7277	-0.311
Mof_N 	N 	0.1903	0.9729	0.8365	-0.063
Mof_C 	C 	0.4807	0.9573	0.8938	-0.026
Mof_C 	C 	0.47	0.0363	0.0966	-0.029
Mof_H 	H 	0.3345	0.8039	0.8692	0.062
Mof_H 	H 	0.334	0.0118	0.7712	0.141
Mof_H 	H 	0.3062	0.0213	0.642	0.133
Mof_H 	H 	0.4669	0.9318	0.8171	0.055
Mof_H 	H 	0.4494	0.0646	0.1589	0.058
Mof_H 	H 	0.3373	0.6961	0.8718	0.056
Mof_Zn	Zn	0.80641	0.53501	0.43216	1.195
Mof_O 	O 	0.87068	0.4864	0.4309	-0.431
Mof_N 	N 	0.80492	0.671	0.4004	-0.26
Mof_N 	N 	0.76181	0.5151	0.5818	-0.266
Mof_N 	N 	0.7228	0.5094	0.7641	-0.258
Mof_C 	C 	0.8974	0.5293	0.5254	0.266
Mof_N 	N 	0.7892	0.7044	0.2786	-0.067
Mof_C 	C 	0.7641	0.5007	0.7082	0.211
Mof_N 	N 	0.714	0.5275	0.5584	-0.076
Mof_C 	C 	0.9509	0.5123	0.5124	-0.04
Mof_O 	O 	0.88068	0.57	0.6167	-0.317
Mof_N 	N 	0.8063	0.4881	0.7723	-0.309
Mof_N 	N 	0.6903	0.5271	0.6635	-0.064
Mof_C 	C 	0.9807	0.5427	0.6062	-0.026
Mof_C 	C 	0.97	0.4637	0.4034	-0.028
Mof_H 	H 	0.8345	0.6961	0.6308	0.062
Mof_H 	H 	0.834	0.4882	0.7288	0.142
Mof_H 	H 	0.8062	0.4787	0.858	0.133
Mof_H 	H 	0.9669	0.5682	0.6829	0.055
Mof_H 	H 	0.9494	0.4354	0.3411	0.058
Mof_H 	H 	0.8373	0.8039	0.6282	0.056
Mof_Zn	Zn	0.69359	0.46499	0.93216	1.194
Mof_O 	O 	0.62932	0.5136	0.9309	-0.433
Mof_N 	N 	0.69508	0.329	0.9004	-0.26
Mof_N 	N 	0.73819	0.4849	0.0818	-0.265
Mof_N 	N 	0.7772	0.4906	0.2641	-0.257
Mof_C 	C 	0.6026	0.4707	0.0254	0.268
Mof_N 	N 	0.7108	0.2956	0.7786	-0.067
Mof_C 	C 	0.7359	0.4993	0.2082	0.211
Mof_N 	N 	0.786	0.4725	0.0584	-0.075
Mof_C 	C 	0.5491	0.4877	0.0124	-0.04
Mof_O 	O 	0.61932	0.43	0.1167	-0.316
Mof_N 	N 	0.6937	0.5119	0.2723	-0.309
Mof_N 	N 	0.8097	0.4729	0.1635	-0.063
Mof_C 	C 	0.5193	0.4573	0.1062	-0.025
Mof_C 	C 	0.53	0.5363	0.9034	-0.029
Mof_H 	H 	0.6655	0.3039	0.1308	0.062
Mof_H 	H 	0.666	0.5118	0.2288	0.142
Mof_H 	H 	0.6938	0.5213	0.358	0.134
Mof_H 	H 	0.5331	0.4318	0.1829	0.055
Mof_H 	H 	0.5506	0.5646	0.8411	0.058
Mof_H 	H 	0.6627	0.1961	0.1282	0.056
Mof_Zn	Zn	0.80641	0.96499	0.43216	1.194
Mof_O 	O 	0.87068	0.0136	0.4309	-0.43
Mof_N 	N 	0.80492	0.829	0.4004	-0.26
Mof_N 	N 	0.76181	0.9849	0.5818	-0.266
Mof_N 	N 	0.7228	0.9906	0.7641	-0.257
Mof_C 	C 	0.8974	0.9707	0.5254	0.265
Mof_N 	N 	0.7892	0.7956	0.2786	-0.068
Mof_C 	C 	0.7641	0.9993	0.7082	0.213
Mof_N 	N 	0.714	0.9725	0.5584	-0.077
Mof_C 	C 	0.9509	0.9877	0.5124	-0.042
Mof_O 	O 	0.88068	0.93	0.6167	-0.316
Mof_N 	N 	0.8063	0.0119	0.7723	-0.31
Mof_N 	N 	0.6903	0.9729	0.6635	-0.064
Mof_C 	C 	0.9807	0.9573	0.6062	-0.027
Mof_C 	C 	0.97	0.0363	0.4034	-0.026
Mof_H 	H 	0.8345	0.8039	0.6308	0.062
Mof_H 	H 	0.834	0.0118	0.7288	0.141
Mof_H 	H 	0.8062	0.0213	0.858	0.131
Mof_H 	H 	0.9669	0.9318	0.6829	0.056
Mof_H 	H 	0.9494	0.0646	0.3411	0.058
Mof_H 	H 	0.8373	0.6961	0.6282	0.056
Mof_Zn	Zn	0.69359	0.03501	0.93216	1.192
Mof_O 	O 	0.62932	0.9864	0.9309	-0.431
Mof_N 	N 	0.69508	0.171	0.9004	-0.261
Mof_N 	N 	0.73819	0.0151	0.0818	-0.264
Mof_N 	N 	0.7772	0.0094	0.2641	-0.257
Mof_C 	C 	0.6026	0.0293	0.0254	0.269
Mof_N 	N 	0.7108	0.2044	0.7786	-0.068
Mof_C 	C 	0.7359	0.0007	0.2082	0.214
Mof_N 	N 	0.786	0.0275	0.0584	-0.074
Mof_C 	C 	0.5491	0.0123	0.0124	-0.038
Mof_O 	O 	0.61932	0.07	0.1167	-0.316
Mof_N 	N 	0.6937	0.9881	0.2723	-0.311
Mof_N 	N 	0.8097	0.0271	0.1635	-0.063
Mof_C 	C 	0.5193	0.0427	0.1062	-0.026
Mof_C 	C 	0.53	0.9637	0.9034	-0.029
Mof_H 	H 	0.6655	0.1961	0.1308	0.062
Mof_H 	H 	0.666	0.9882	0.2288	0.141
Mof_H 	H 	0.6938	0.9787	0.358	0.133
Mof_H 	H 	0.5331	0.0682	0.1829	0.055
Mof_H 	H 	0.5506	0.9354	0.8411	0.058
Mof_H 	H 	0.6627	0.3039	0.1282	0.056
Mof_Zn	Zn	0.19359	0.46499	0.56784	1.195
Mof_O 	O 	0.12932	0.5136	0.5691	-0.431
Mof_N 	N 	0.19508	0.329	0.5996	-0.26
Mof_N 	N 	0.23819	0.4849	0.4182	-0.266
Mof_N 	N 	0.2772	0.4906	0.2359	-0.258
Mof_C 	C 	0.1026	0.4707	0.4746	0.266
Mof_N 	N 	0.2108	0.2956	0.7214	-0.067
Mof_C 	C 	0.2359	0.4993	0.2918	0.211
Mof_N 	N 	0.286	0.4725	0.4416	-0.076
Mof_C 	C 	0.0491	0.4877	0.4876	-0.04
Mof_O 	O 	0.11932	0.43	0.3833	-0.317
Mof_N 	N 	0.1937	0.5119	0.2277	-0.309
Mof_N 	N 	0.3097	0.4729	0.3365	-0.064
Mof_C 	C 	0.0193	0.4573	0.3938	-0.026
Mof_C 	C 	0.03	0.5363	0.5966	-0.028
Mof_H 	H 	0.1655	0.3039	0.3692	0.062
Mof_H 	H 	0.166	0.5118	0.2712	0.142
Mof_H 	H 	0.1938	0.5213	0.142	0.133
Mof_H 	H 	0.0331	0.4318	0.3171	0.055
Mof_H 	H 	0.0506	0.5646	0.6589	0.058
Mof_H 	H 	0.1627	0.1961	0.3718	0.056
Mof_Zn	Zn	0.30641	0.53501	0.06784	1.194
Mof_O 	O 	0.37068	0.4864	0.0691	-0.433
Mof_N 	N 	0.30492	0.671	0.0996	-0.26
Mof_N 	N 	0.26181	0.5151	0.9182	-0.265
Mof_N 	N 	0.2228	0.5094	0.7359	-0.257
Mof_C 	C 	0.3974	0.5293	0.9746	0.268
Mof_N 	N 	0.2892	0.7044	0.2214	-0.067
Mof_C 	C 	0.2641	0.5007	0.7918	0.211
Mof_N 	N 	0.214	0.5275	0.9416	-0.075
Mof_C 	C 	0.4509	0.5123	0.9876	-0.04
Mof_O 	O 	0.38068	0.57	0.8833	-0.316
Mof_N 	N 	0.3063	0.4881	0.7277	-0.309
Mof_N 	N 	0.1903	0.5271	0.8365	-0.063
Mof_C 	C 	0.4807	0.5427	0.8938	-0.025
Mof_C 	C 	0.47	0.4637	0.0966	-0.029
Mof_H 	H 	0.3345	0.6961	0.8692	0.062
Mof_H 	H 	0.334	0.4882	0.7712	0.142
Mof_H 	H 	0.3062	0.4787	0.642	0.134
Mof_H 	H 	0.4669	0.5682	0.8171	0.055
Mof_H 	H 	0.4494	0.4354	0.1589	0.058
Mof_H 	H 	0.3373	0.8039	0.8718	0.056
Mof_C 	C 	0.1845	0.25	0.5356	0.205
Mof_N 	N 	0.1693	0.25	0.4115	-0.28
Mof_C 	C 	0.3155	0.75	0.0356	0.2
Mof_N 	N 	0.3307	0.75	0.9115	-0.277
Mof_C 	C 	0.8155	0.75	0.4644	0.205
Mof_N 	N 	0.8307	0.75	0.5885	-0.28
Mof_C 	C 	0.6845	0.25	0.9644	0.2
Mof_N 	N 	0.6693	0.25	0.0885	-0.277
_end
