data_functionalizedCrystal
_audit_creation_method	'EQeq! by Chris Wilmer'
_symmetry_space_group_name_H-M	'P1'
_symmetry_Int_Tables_number	1
_symmetry_cell_setting	triclinic
loop_
_symmetry_equiv_pos_as_xyz
  x,y,z
_cell_length_a	24.8241
_cell_length_b	38.8452
_cell_length_c	38.8452
_cell_angle_alpha	120
_cell_angle_beta	90
_cell_angle_gamma	90
loop_
_atom_site_label
_atom_site_type_symbol
_atom_site_fract_x
_atom_site_fract_y
_atom_site_fract_z
_atom_site_charge
Mof_Fe	Fe	-1.24506e-32	0.31026	0.31434	0.907
Mof_Fe	Fe	-2.49013e-32	0.28701	0.67064	0.759
Mof_Fe	Fe	0.5	0.68566	0.68974	1.032
Mof_Fe	Fe	0.5	0.00408	0.31434	1.032
Mof_Fe	Fe	0.06611	0.76053	0.06601	0.977
Mof_Fe	Fe	0.06611	0.30548	0.23947	0.978
Mof_Fe	Fe	0.56611	0.30548	0.06601	1.012
Mof_Fe	Fe	0.93389	0.76053	0.06601	1.057
Mof_Fe	Fe	0.93389	0.30548	0.23947	1.059
Mof_Fe	Fe	0.43389	0.76053	0.69452	1.013
Mof_Fe	Fe	6.22532e-33	0.68566	0.99592	0.906
Mof_Fe	Fe	0.5	0.28701	0.61637	0.892
Mof_Fe	Fe	0.56611	0.76053	0.69452	1.013
Mof_Fe	Fe	-1.8676e-32	0.00408	0.68974	0.908
Mof_Fe	Fe	0.5	0.31026	0.99592	1.031
Mof_Fe	Fe	0.43389	0.93399	0.23947	1.013
Mof_Fe	Fe	0.93389	0.93399	0.69452	1.058
Mof_Fe	Fe	-6.22532e-33	0.38363	0.71299	0.759
Mof_Fe	Fe	0.06611	0.93399	0.69452	0.978
Mof_Fe	Fe	0.5	0.38363	0.67064	0.892
Mof_Fe	Fe	0.43389	0.30548	0.06601	1.013
Mof_Fe	Fe	-1.8676e-32	0.32936	0.61637	0.759
Mof_Fe	Fe	0.5	0.32936	0.71299	0.892
Mof_Fe	Fe	0.56611	0.93399	0.23947	1.013
Mof_H 	H 	0.6244	0.1788	0.8938	-0.448
Mof_H 	H 	0.9503	0.8341	0.2027	0.185
Mof_H 	H 	0.3023	0.2448	0.9841	-0.145
Mof_H 	H 	0.5461	0.7747	0.559	0.032
Mof_H 	H 	0.0321	0.7956	0.6373	-0.078
Mof_H 	H 	0.5014	0.8714	0.8533	0.06
Mof_H 	H 	0.1572	0.4486	0.3546	0.124
Mof_H 	H 	0.0486	0.9092	0.0782	0.243
Mof_H 	H 	0.4986	0.8714	0.8533	0.06
Mof_H 	H 	0.2194	0.8011	0.1634	0.053
Mof_H 	H 	0.3249	0.3963	0.0876	0.224
Mof_H 	H 	0.6977	0.2448	0.9841	-0.145
Mof_H 	H 	0.1745	0.3781	0.7988	0.635
Mof_H 	H 	0.7974	0.4169	0.3506	0.203
Mof_H 	H 	0.1506	0.2872	0.7174	0.653
Mof_H 	H 	0.7039	0.4051	0.0346	-0.06
Mof_H 	H 	0.0321	0.8417	0.2044	-0.077
Mof_H 	H 	0.6363	0.7819	0.807	0.196
Mof_H 	H 	0.6485	0.8216	0.7545	-0.003
Mof_H 	H 	0.3841	0.1945	0.6047	0.716
Mof_H 	H 	0.9692	0.1774	0.1677	-0.362
Mof_H 	H 	0.9677	0.834	0.01	-0.232
Mof_H 	H 	0.5461	0.441	0.2157	0.032
Mof_H 	H 	0.4528	0.7411	0.5701	-0.015
Mof_H 	H 	0.4691	0.8327	0.2665	0.056
Mof_H 	H 	0.9075	0.2966	0.7722	0.815
Mof_H 	H 	0.2039	0.4051	0.3705	-0.062
Mof_H 	H 	0.0806	0.173	0.6793	0.043
Mof_H 	H 	0.9081	0.0583	0.822	-1.271
Mof_H 	H 	0.6897	0.7542	0.8116	1.31
Mof_H 	H 	0.9498	0.214	0.1031	0.459
Mof_H 	H 	0.4081	0.0583	0.2363	-1.276
Mof_H 	H 	0.9528	0.4299	0.2589	0.247
Mof_H 	H 	0.6244	0.1062	0.285	-0.457
Mof_H 	H 	0.8473	0.3788	0.3867	0.14
Mof_H 	H 	0.1956	0.6732	0.0437	0.164
Mof_H 	H 	0.4197	0.3186	0.8792	0.049
Mof_H 	H 	0.0688	0.199	0.5379	0.636
Mof_H 	H 	0.7878	0.7177	0.9388	0.104
Mof_H 	H 	0.1898	0.2463	0.5554	0.641
Mof_H 	H 	0.2974	0.4169	0.0663	0.213
Mof_H 	H 	0.0502	0.8969	0.1109	0.55
Mof_H 	H 	0.7806	0.8011	0.1634	0.053
Mof_H 	H 	0.0472	0.4299	0.2589	0.521
Mof_H 	H 	0.9697	0.8793	0.778	-0.179
Mof_H 	H 	0.5804	0.8711	0.8005	0.053
Mof_H 	H 	0.2026	0.4169	0.3506	0.169
Mof_H 	H 	0.031	0.7966	0.6385	-0.104
Mof_H 	H 	0.7806	0.3623	0.1989	0.054
Mof_H 	H 	0.5767	0.1827	0.922	-0.315
Mof_H 	H 	0.9503	0.3686	0.1659	0.185
Mof_H 	H 	0.8255	0.4207	0.6219	0.755
Mof_H 	H 	0.4208	0.0964	0.307	0.876
Mof_H 	H 	0.1854	0.7613	0.9859	1.387
Mof_H 	H 	0.3683	0.5903	0.5594	0.089
Mof_H 	H 	0.4989	0.3997	0.2354	0.049
Mof_H 	H 	0.5322	0.8311	0.2657	0.05
Mof_H 	H 	0.3249	0.6913	0.6037	0.193
Mof_H 	H 	0.578	0.6217	0.6863	0.02
Mof_H 	H 	0.5303	0.222	0.1207	0.108
Mof_H 	H 	0.1001	0.9996	0.5975	0.097
Mof_H 	H 	0.5491	0.9821	0.1588	-0.02
Mof_H 	H 	0.7878	0.2211	0.2823	0.105
Mof_H 	H 	0.3563	0.6873	0.7976	1.321
Mof_H 	H 	0.1897	0.7542	0.9426	1.278
Mof_H 	H 	0.625	0.9153	0.3744	-0.084
Mof_H 	H 	0.6923	0.2652	0.9582	-0.556
Mof_H 	H 	0.3571	0.7804	0.8099	-0.383
Mof_H 	H 	0.2122	0.7177	0.9388	0.1
Mof_H 	H 	0.3841	0.4102	0.8055	0.714
Mof_H 	H 	0.8999	0.5979	0.0004	0.123
Mof_H 	H 	0.0988	0.4388	0.3368	0.021
Mof_H 	H 	0.3473	0.0079	0.3867	0.123
Mof_H 	H 	0.5805	0.1957	0.0583	0.007
Mof_H 	H 	0.5308	0.8323	0.8226	0.079
Mof_H 	H 	0.1467	0.0751	0.7382	-1.71
Mof_H 	H 	0.4325	0.441	0.0698	-0.138
Mof_H 	H 	0.1454	0.8739	0.6393	-0.01
Mof_H 	H 	0.9509	0.4151	0.1867	0.153
Mof_H 	H 	0.7974	0.9337	0.5831	0.202
Mof_H 	H 	0.6898	0.2463	0.6909	0.667
Mof_H 	H 	0.8249	0.3963	0.3087	0.21
Mof_H 	H 	0.8041	0.3698	0.3271	0.074
Mof_H 	H 	0.8841	0.3953	0.8055	0.797
Mof_H 	H 	0.6363	0.0251	0.2181	0.195
Mof_H 	H 	0.3103	0.7542	0.8116	1.309
Mof_H 	H 	0.8099	0.6846	0.913	-0.989
Mof_H 	H 	0.4075	0.2966	0.5244	0.726
Mof_H 	H 	0.9325	0.6288	0.0698	-0.118
Mof_H 	H 	0.0925	0.2278	0.5244	0.659
Mof_H 	H 	0.1898	0.3091	0.7537	0.641
Mof_H 	H 	0.4987	0.7544	0.546	0.035
Mof_H 	H 	0.3563	0.1103	0.3127	1.321
Mof_H 	H 	0.3099	0.2284	0.913	-0.998
Mof_H 	H 	0.7194	0.8366	0.1989	0.053
Mof_H 	H 	0.8756	0.1788	0.285	-0.446
Mof_H 	H 	0.3637	0.193	0.9749	0.194
Mof_H 	H 	0.8167	0.3243	0.7234	0.742
Mof_H 	H 	0.6279	0.1931	0.6715	0.688
Mof_H 	H 	0.0491	0.8133	0.2284	0.178
Mof_H 	H 	0.3756	0.715	0.8212	-0.457
Mof_H 	H 	0.9075	0.4756	0.7034	0.816
Mof_H 	H 	0.5988	0.6632	0.5612	0.028
Mof_H 	H 	0.3999	0.5979	0.5975	0.108
Mof_H 	H 	0.8755	0.6634	0.9101	1.908
Mof_H 	H 	0.3721	0.1931	0.6715	0.703
Mof_H 	H 	0.0308	0.1774	0.1677	-0.444
Mof_H 	H 	0.1751	0.9124	0.6037	0.181
Mof_H 	H 	0.1751	0.6913	0.0876	0.176
Mof_H 	H 	0.2806	0.8011	0.6377	0.053
Mof_H 	H 	0.5486	0.9092	0.831	0.028
Mof_H 	H 	0.2026	0.9337	0.5831	0.169
Mof_H 	H 	0.1572	0.6454	0.094	0.142
Mof_H 	H 	0.4195	0.8626	0.8043	0.007
Mof_H 	H 	0.1506	0.4302	0.7128	0.652
Mof_H 	H 	0.7194	0.3623	0.1634	0.053
Mof_H 	H 	0.1429	0.0295	0.8099	-0.387
Mof_H 	H 	0.4509	0.7716	0.1867	0.04
Mof_H 	H 	0.4075	0.2278	0.7034	0.726
Mof_H 	H 	0.8102	0.3091	0.7537	0.755
Mof_H 	H 	0.1001	0.4025	0.4021	0.097
Mof_H 	H 	0.0497	0.8341	0.2027	0.354
Mof_H 	H 	0.4503	0.7973	0.1659	0.006
Mof_H 	H 	0.3102	0.2463	0.6909	0.688
Mof_H 	H 	0.4679	0.3627	0.2044	0.045
Mof_H 	H 	0.6901	0.6846	0.7716	-1.003
Mof_H 	H 	0.1159	0.4102	0.6047	0.661
Mof_H 	H 	0.4989	0.8357	0.6003	0.049
Mof_H 	H 	0.65	0.3907	0.6212	0.676
Mof_H 	H 	0.9194	0.5063	0.827	0.028
Mof_H 	H 	0.9509	0.8412	0.0179	0.745
Mof_H 	H 	0.5308	0.9903	0.1677	0.079
Mof_H 	H 	0.3044	0.6732	0.6295	0.041
Mof_H 	H 	0.7026	0.6494	0.5831	0.184
Mof_H 	H 	0.5803	0.7938	0.6059	0.01
Mof_H 	H 	0.4528	0.829	0.2589	-0.015
Mof_H 	H 	0.4233	0.078	0.2607	-0.321
Mof_H 	H 	0.8023	0.0159	0.7552	-0.139
Mof_H 	H 	0.9677	0.99	0.824	-0.234
Mof_H 	H 	0.3428	0.906	0.3546	0.14
Mof_H 	H 	0.5308	0.1774	0.0097	0.079
Mof_H 	H 	0.1923	0.0418	0.7348	-0.562
Mof_H 	H 	0.3146	0.0141	0.2387	1.423
Mof_H 	H 	0.8471	0.0701	0.8303	-1.092
Mof_H 	H 	0.6833	0.3243	0.6009	0.653
Mof_H 	H 	0.0794	0.7806	0.1848	-0.019
Mof_H 	H 	0.0725	0.4338	0.3936	0.093
Mof_H 	H 	0.7122	0.2211	0.9388	0.097
Mof_H 	H 	0.5806	0.173	0.4937	0.054
Mof_H 	H 	0.9528	0.7411	0.171	0.246
Mof_H 	H 	0.078	0.6217	0.9354	0.032
Mof_H 	H 	0.8755	0.0899	0.7533	1.935
Mof_H 	H 	0.5491	0.1767	0.0179	-0.02
Mof_H 	H 	0.4986	0.1467	0.0181	0.059
Mof_H 	H 	0.8102	0.2463	0.5554	0.756
Mof_H 	H 	0.3229	0.3654	0.0022	-0.124
Mof_H 	H 	0.0486	0.9218	0.831	0.242
Mof_H 	H 	0.4678	0.7343	0.5654	0.05
Mof_H 	H 	0.0327	0.9005	0.1193	-0.116
Mof_H 	H 	0.4691	0.7335	0.5662	0.056
Mof_H 	H 	0.0323	0.834	0.01	-0.303
Mof_H 	H 	0.3471	0.1697	0.9299	-1.082
Mof_H 	H 	0.1977	0.0159	0.7552	-0.141
Mof_H 	H 	0.4312	0.199	0.6611	0.711
Mof_H 	H 	0.5725	0.4338	0.0402	0.103
Mof_H 	H 	0.1485	0.2455	0.1784	-0.02
Mof_H 	H 	0.9502	0.8877	0.0432	0.318
Mof_H 	H 	0.3721	0.4784	0.8069	0.701
Mof_H 	H 	0.9194	0.173	0.6793	0.028
Mof_H 	H 	0.9037	0.8973	0.5643	0.024
Mof_H 	H 	0.9169	0.6889	0.9019	-0.222
Mof_H 	H 	0.1437	0.2024	0.3127	1.306
Mof_H 	H 	0.3428	0.6454	0.5514	0.14
Mof_H 	H 	0.5491	0.4151	0.2284	0.04
Mof_H 	H 	0.4012	0.6632	0.5612	0.028
Mof_H 	H 	0.0688	0.4621	0.6611	0.636
Mof_H 	H 	0.3515	0.8216	0.7545	-0.004
Mof_H 	H 	0.969	0.3615	0.1581	-0.013
Mof_H 	H 	0.148	0.6891	0.1031	0.135
Mof_H 	H 	0.3146	0.7613	0.7754	1.422
Mof_H 	H 	0.6956	0.3705	0.0437	0.161
Mof_H 	H 	0.1529	0.1697	0.2398	-1.094
Mof_H 	H 	0.6901	0.2284	0.913	-0.989
Mof_H 	H 	0.5491	0.8412	0.8233	-0.02
Mof_H 	H 	0.9312	0.3389	0.801	0.814
Mof_H 	H 	0.0919	0.178	0.2363	-1.279
Mof_H 	H 	0.3255	0.4207	0.7988	0.681
Mof_H 	H 	0.0963	0.4357	0.333	0.024
Mof_H 	H 	0.4509	0.8133	0.5849	0.04
Mof_H 	H 	0.8546	0.3607	0.2346	-0.009
Mof_H 	H 	0.0303	0.8793	0.778	-0.25
Mof_H 	H 	0.4509	0.8412	0.8233	-0.021
Mof_H 	H 	0.6572	0.6454	0.5514	0.141
Mof_H 	H 	0.1745	0.2012	0.5793	0.635
Mof_H 	H 	0.5011	0.8357	0.6003	0.049
Mof_H 	H 	0.1159	0.3953	0.8055	0.661
Mof_H 	H 	0.0831	0.0981	0.787	-0.249
Mof_H 	H 	0.1467	0.2618	0.3369	-1.71
Mof_H 	H 	0.8077	0.693	0.9582	-0.554
Mof_H 	H 	0.6563	0.4252	0.0182	0.101
Mof_H 	H 	0.2798	0.2436	0.1019	0.06
Mof_H 	H 	0.65	0.3788	0.7695	0.675
Mof_H 	H 	0.6279	0.4784	0.8069	0.686
Mof_H 	H 	0.8229	0.9978	0.6346	-0.117
Mof_H 	H 	0.6159	0.4102	0.8055	0.697
Mof_H 	H 	0.4975	0.1802	0.1026	0.075
Mof_H 	H 	0.5491	0.7716	0.1867	0.04
Mof_H 	H 	0.4206	0.7806	0.5958	0.057
Mof_H 	H 	0.6751	0.6913	0.6037	0.194
Mof_H 	H 	0.2798	0.8981	0.1417	0.06
Mof_H 	H 	0.8471	0.7602	0.9299	-1.075
Mof_H 	H 	0.5688	0.3389	0.5379	0.696
Mof_H 	H 	0.1572	0.906	0.5514	0.124
Mof_H 	H 	0.3533	0.6631	0.7382	-1.718
Mof_H 	H 	0.5461	0.7843	0.2253	0.031
Mof_H 	H 	0.3494	0.2872	0.5698	0.697
Mof_H 	H 	0.875	0.9153	0.5409	-0.098
Mof_H 	H 	0.4312	0.3389	0.5379	0.711
Mof_H 	H 	0.5303	0.8793	0.1013	0.108
Mof_H 	H 	0.0803	0.3186	0.4394	0.03
Mof_H 	H 	0.852	0.414	0.3109	0.154
Mof_H 	H 	0.0988	0.898	0.5612	0.021
Mof_H 	H 	0.5794	0.8152	0.2194	0.056
Mof_H 	H 	0.4503	0.8341	0.6314	0.006
Mof_H 	H 	0.1005	0.5971	0.0017	0.069
Mof_H 	H 	0.4528	0.4299	0.171	-0.015
Mof_H 	H 	0.875	0.4591	0.3744	-0.098
Mof_H 	H 	0.4503	0.3686	0.2027	0.006
Mof_H 	H 	0.7202	0.2436	0.1019	0.061
Mof_H 	H 	0.5025	0.8974	0.0776	0.075
Mof_H 	H 	0.9012	0.6632	0.102	0.041
Mof_H 	H 	0.5792	0.693	0.7894	0.876
Mof_H 	H 	0.0805	0.1957	0.1374	-0.028
Mof_H 	H 	0.8094	0.0442	0.734	-0.121
Mof_H 	H 	0.65	0.2305	0.6093	0.676
Mof_H 	H 	0.3721	0.3285	0.5216	0.703
Mof_H 	H 	0.8756	0.1062	0.8212	-0.446
Mof_H 	H 	0.9692	0.8323	0.0097	-0.362
Mof_H 	H 	0.5925	0.2278	0.7034	0.71
Mof_H 	H 	0.3533	0.2618	0.9249	-1.709
Mof_H 	H 	0.0794	0.8152	0.5958	-0.019
Mof_H 	H 	0.0014	0.8714	0.0181	0.084
Mof_H 	H 	0.6245	0.6634	0.7533	1.935
Mof_H 	H 	0.9208	0.0964	0.7894	0.88
Mof_H 	H 	0.0805	0.9417	0.8043	-0.029
Mof_H 	H 	0.6429	0.7804	0.8099	-0.383
Mof_H 	H 	0.9539	0.7843	0.559	0.119
Mof_H 	H 	0.8999	0.4025	0.4021	0.123
Mof_H 	H 	0.0963	0.8973	0.5643	0.024
Mof_H 	H 	0.4194	0.173	0.4937	0.055
Mof_H 	H 	0.969	0.7966	0.6385	-0.012
Mof_H 	H 	0.9075	0.2278	0.5244	0.816
Mof_H 	H 	0.1245	0.0899	0.7533	1.915
Mof_H 	H 	0.8471	0.1697	0.2398	-1.092
Mof_H 	H 	0.5919	0.7637	0.822	-1.275
Mof_H 	H 	0.3683	0.4406	0.0309	0.096
Mof_H 	H 	0.1527	0.3788	0.3867	0.11
Mof_H 	H 	0.9233	0.7393	0.922	-0.281
Mof_H 	H 	0.0323	0.99	0.824	-0.304
Mof_H 	H 	0.5309	0.4338	0.1673	0.056
Mof_H 	H 	0.9691	0.7335	0.1673	-0.072
Mof_H 	H 	0.35	0.3788	0.7695	0.693
Mof_H 	H 	0.5498	0.9568	0.1123	0.032
Mof_H 	H 	0.5013	0.7916	0.2456	0.035
Mof_H 	H 	0.4498	0.8891	0.1031	-0.023
Mof_H 	H 	0.0498	0.1555	0.1123	0.316
Mof_H 	H 	0.4037	0.667	0.5643	0.024
Mof_H 	H 	0.8515	0.9329	0.7545	-0.019
Mof_H 	H 	0.9197	0.3941	0.2062	0.186
Mof_H 	H 	0.1897	0.0574	0.8116	1.296
Mof_H 	H 	0.8995	0.9983	0.5954	0.087
Mof_H 	H 	0.1956	0.3705	0.3268	0.044
Mof_H 	H 	0.9975	0.1802	0.0776	-0.243
Mof_H 	H 	0.3437	0.593	0.5748	0.082
Mof_H 	H 	0.6563	0.9818	0.407	0.083
Mof_H 	H 	0.9195	0.9417	0.8043	-0.045
Mof_H 	H 	0.8755	0.2467	0.3366	1.936
Mof_H 	H 	0.7202	0.8981	0.1417	0.061
Mof_H 	H 	0.0308	0.8323	0.0097	-0.442
Mof_H 	H 	0.6279	0.3285	0.5216	0.688
Mof_H 	H 	0.1854	0.2246	0.2387	1.406
Mof_H 	H 	0.469	0.8419	0.6385	0.049
Mof_H 	H 	0.8255	0.3781	0.7988	0.754
Mof_H 	H 	0.8515	0.2455	0.1784	-0.019
Mof_H 	H 	0.6454	0.8739	0.2346	-0.002
Mof_H 	H 	0.7806	0.8366	0.6377	0.054
Mof_H 	H 	0.7039	0.9654	0.3705	-0.079
Mof_H 	H 	0.6959	0.6729	0.6302	0.074
Mof_H 	H 	0.1563	0.593	0.0182	0.092
Mof_H 	H 	0.6467	0.2618	0.9249	-1.694
Mof_H 	H 	0.3023	0.0159	0.2607	-0.147
Mof_H 	H 	0.8571	0.1901	0.2196	-0.382
Mof_H 	H 	0.6005	0.5971	0.5954	0.075
Mof_H 	H 	0.4692	0.9903	0.1677	0.079
Mof_H 	H 	0.5014	0.1467	0.0181	0.059
Mof_H 	H 	0.3077	0.693	0.7348	-0.564
Mof_H 	H 	0.9196	0.9294	0.8005	0.511
Mof_H 	H 	0.9539	0.441	0.2253	0.119
Mof_H 	H 	0.6771	0.6368	0.6346	-0.091
Mof_H 	H 	0.1833	0.2766	0.6009	0.631
Mof_H 	H 	0.0461	0.441	0.2253	0.123
Mof_H 	H 	0.0725	0.6064	0.0402	0.082
Mof_H 	H 	0.9673	0.8807	0.7812	-0.057
Mof_H 	H 	0.0502	0.214	0.1031	0.553
Mof_H 	H 	0.3023	0.7393	0.7552	-0.147
Mof_H 	H 	0.1317	0.4406	0.4097	0.079
Mof_H 	H 	0.1001	0.5979	0.0004	0.098
Mof_H 	H 	0.9502	0.1555	0.1123	0.319
Mof_H 	H 	0.4275	0.9598	0.3936	0.114
Mof_H 	H 	0.4227	0.2296	0.5533	-0.067
Mof_H 	H 	0.4312	0.4621	0.801	0.71
Mof_H 	H 	0.4197	0.5606	0.6814	0.049
Mof_H 	H 	0.5025	0.9224	0.8198	0.075
Mof_H 	H 	0.5792	0.0964	0.307	0.876
Mof_H 	H 	0.375	0.6256	0.5409	-0.085
Mof_H 	H 	0.7026	0.4169	0.0663	0.185
Mof_H 	H 	0.6833	0.2766	0.6757	0.653
Mof_H 	H 	0.6771	0.9978	0.3632	-0.091
Mof_H 	H 	0.375	0.4591	0.0847	-0.111
Mof_H 	H 	0.2194	0.8366	0.6377	0.052
Mof_H 	H 	0.531	0.3615	0.2034	0.049
Mof_H 	H 	0.6898	0.4446	0.7537	0.665
Mof_H 	H 	0.8041	0.9573	0.6302	0.074
Mof_H 	H 	0.375	0.9153	0.3744	-0.085
Mof_H 	H 	0.5805	0.8626	0.8043	0.007
Mof_H 	H 	0.6527	0.3788	0.9921	0.138
Mof_H 	H 	0.4539	0.441	0.2157	0.031
Mof_H 	H 	0.6959	0.9573	0.3271	0.074
Mof_H 	H 	0.125	0.9153	0.5409	-0.074
Mof_H 	H 	0.6751	0.3963	0.0876	0.189
Mof_H 	H 	0.3041	0.3698	0.0427	0.13
Mof_H 	H 	0.8044	0.9563	0.6295	0.038
Mof_H 	H 	0.8571	0.0295	0.8099	-0.382
Mof_H 	H 	0.3473	0.3788	0.9921	0.135
Mof_H 	H 	0.5025	0.1802	0.1026	0.075
Mof_H 	H 	0.9989	0.8357	0.2354	-0.169
Mof_H 	H 	0.8473	0.0079	0.6212	0.14
Mof_H 	H 	0.6159	0.1945	0.6047	0.699
Mof_H 	H 	0.7961	0.4051	0.3705	-0.101
Mof_H 	H 	0.7202	0.8583	0.7564	0.061
Mof_H 	H 	0.6529	0.7602	0.8303	-1.087
Mof_H 	H 	0.0804	0.1995	0.1289	0.548
Mof_H 	H 	0.4227	0.4467	0.6763	-0.067
Mof_H 	H 	0.4678	0.4346	0.1689	0.05
Mof_H 	H 	0.4208	0.693	0.7894	0.876
Mof_H 	H 	0.0321	0.3627	0.1583	-0.079
Mof_H 	H 	0.5803	0.1208	0.4394	0.049
Mof_H 	H 	0.1245	0.2467	0.3366	1.915
Mof_H 	H 	0.4677	0.99	0.166	0.075
Mof_H 	H 	0.1363	0.7819	0.9749	0.183
Mof_H 	H 	0.5497	0.7973	0.1659	0.006
Mof_H 	H 	0.8255	0.2012	0.5793	0.755
Mof_H 	H 	0.6956	0.6732	0.6295	0.041
Mof_H 	H 	0.3533	0.0751	0.3369	-1.718
Mof_H 	H 	0.4233	0.1827	0.922	-0.318
Mof_H 	H 	0.3094	0.266	0.9558	-0.125
Mof_H 	H 	0.7974	0.6494	0.0663	0.203
Mof_H 	H 	0.125	0.6256	0.0847	-0.081
Mof_H 	H 	0.0792	0.2106	0.307	0.864
Mof_H 	H 	0.4325	0.6288	0.559	-0.107
Mof_H 	H 	0.3077	0.0418	0.307	-0.564
Mof_H 	H 	0.1429	0.1901	0.2196	-0.387
Mof_H 	H 	0.1485	0.9329	0.7545	-0.02
Mof_H 	H 	0.6005	0.9983	0.4029	0.075
Mof_H 	H 	0.9197	0.8121	0.6059	0.186
Mof_H 	H 	0.8494	0.2826	0.5698	0.766
Mof_H 	H 	0.0803	0.3941	0.2062	0.293
Mof_H 	H 	0.1485	0.8216	0.0671	-0.02
Mof_H 	H 	0.875	0.6256	0.0847	-0.105
Mof_H 	H 	0.9206	0.8152	0.5958	0.006
Mof_H 	H 	0.4539	0.7747	0.559	0.031
Mof_H 	H 	0.1745	0.4207	0.6219	0.634
Mof_H 	H 	0.4697	0.8987	0.778	0.108
Mof_H 	H 	0.1244	0.1062	0.8212	-0.46
Mof_H 	H 	0.5013	0.7544	0.546	0.035
Mof_H 	H 	0.1923	0.693	0.9582	-0.553
Mof_H 	H 	0.9528	0.829	0.5701	0.247
Mof_H 	H 	0.0925	0.2966	0.7722	0.659
Mof_H 	H 	0.4677	0.176	0.01	0.075
Mof_H 	H 	0.4196	0.8711	0.8005	0.053
Mof_H 	H 	0.3146	0.2246	0.9859	1.415
Mof_H 	H 	0.2878	0.7177	0.7789	0.098
Mof_H 	H 	0.5767	0.078	0.2607	-0.321
Mof_H 	H 	0.352	0.6891	0.586	0.134
Mof_H 	H 	0.3103	0.1884	0.9426	1.302
Mof_H 	H 	0.1279	0.4784	0.6715	0.644
Mof_H 	H 	0.9169	0.0981	0.787	-0.227
Mof_H 	H 	0.0461	0.7747	0.2157	0.123
Mof_H 	H 	0.422	0.3137	0.9354	0.02
Mof_H 	H 	0.9227	0.2296	0.6763	-0.088
Mof_H 	H 	0.1244	0.715	0.8938	-0.452
Mof_H 	H 	0.3437	0.4252	0.0182	0.089
Mof_H 	H 	0.8099	0.087	0.7716	-1.004
Mof_H 	H 	0.8023	0.7393	0.9841	-0.137
Mof_H 	H 	0.2798	0.8583	0.7564	0.06
Mof_H 	H 	0.5831	0.6889	0.787	-0.245
Mof_H 	H 	0.6906	0.0442	0.3102	-0.126
Mof_H 	H 	0.9227	0.3237	0.5533	-0.088
Mof_H 	H 	0.0011	0.8357	0.2354	0.226
Mof_H 	H 	0.1923	0.2652	0.307	-0.562
Mof_H 	H 	0.3756	0.1788	0.8938	-0.454
Mof_H 	H 	0.578	0.3137	0.9354	0.019
Mof_H 	H 	0.8094	0.266	0.3102	-0.121
Mof_H 	H 	0.4975	0.9224	0.8198	0.075
Mof_H 	H 	0.15	0.3788	0.6093	0.648
Mof_H 	H 	0.5925	0.2966	0.5244	0.711
Mof_H 	H 	0.4075	0.4756	0.7722	0.724
Mof_H 	H 	0.15	0.2305	0.6212	0.648
Mof_H 	H 	0.4169	0.6889	0.787	-0.245
Mof_H 	H 	0.5803	0.3186	0.8792	0.049
Mof_H 	H 	0.5963	0.667	0.5643	0.024
Mof_H 	H 	0.9677	0.176	0.166	-0.234
Mof_H 	H 	0.3229	0.6368	0.6346	-0.092
Mof_H 	H 	0.5688	0.4621	0.801	0.694
Mof_H 	H 	0.5486	0.169	0.0782	0.028
Mof_H 	H 	0.9498	0.8969	0.1109	0.456
Mof_H 	H 	0.9678	0.7343	0.1689	-0.038
Mof_H 	H 	0.3637	0.7819	0.807	0.194
Mof_H 	H 	0.1901	0.2284	0.3154	-1.001
Mof_H 	H 	0.8533	0.0751	0.7382	-1.719
Mof_H 	H 	0.5322	0.7343	0.5654	0.05
Mof_H 	H 	0.0327	0.2188	0.0995	-0.118
Mof_H 	H 	0.2974	0.6494	0.5831	0.183
Mof_H 	H 	0.8428	0.6454	0.094	0.179
Mof_H 	H 	0.9275	0.9598	0.5662	0.14
Mof_H 	H 	0.9197	0.5606	0.8792	0.016
Mof_H 	H 	0.3044	0.9563	0.3268	0.041
Mof_H 	H 	0.0011	0.7646	0.6003	0.226
Mof_H 	H 	0.3755	0.0899	0.3366	1.935
Mof_H 	H 	0.148	0.8969	0.586	0.115
Mof_H 	H 	0.1317	0.5903	0.0309	0.065
Mof_H 	H 	0.8683	0.9691	0.5594	0.102
Mof_H 	H 	0.8571	0.7804	0.9705	-0.376
Mof_H 	H 	0.4197	0.7938	0.6059	0.01
Mof_H 	H 	0.5794	0.4042	0.1848	0.056
Mof_H 	H 	0.6437	0.2024	0.8897	1.304
Mof_H 	H 	0.9987	0.7916	0.546	-0.201
Mof_H 	H 	0.4081	0.7637	0.822	-1.276
Mof_H 	H 	0.6529	0.1697	0.9299	-1.071
Mof_H 	H 	0.8437	0.593	0.0182	0.112
Mof_H 	H 	0.8515	0.8216	0.0671	-0.019
Mof_H 	H 	0.2806	0.8366	0.1989	0.053
Mof_H 	H 	0.5013	0.454	0.2084	0.035
Mof_H 	H 	0.5675	0.9302	0.3712	-0.107
Mof_H 	H 	0.2039	0.6295	0.0346	-0.044
Mof_H 	H 	0.5472	0.4299	0.171	-0.016
Mof_H 	H 	0.6454	0.3607	0.1261	-0.003
Mof_H 	H 	0.3571	0.0295	0.2196	-0.383
Mof_H 	H 	0.0831	0.213	0.3111	-0.249
Mof_H 	H 	0.5014	0.9819	0.1286	0.059
Mof_H 	H 	0.5831	0.213	0.9019	-0.241
Mof_H 	H 	0.9197	0.3186	0.4394	0.016
Mof_H 	H 	0.9678	0.4346	0.2657	-0.038
Mof_H 	H 	0.4697	0.8793	0.1013	0.108
Mof_H 	H 	0.8099	0.2284	0.3154	-1.004
Mof_H 	H 	0.9208	0.2106	0.307	0.88
Mof_H 	H 	0.8103	0.1884	0.2458	1.307
Mof_H 	H 	0.3094	0.0442	0.3102	-0.126
Mof_H 	H 	0.2974	0.9337	0.3506	0.183
Mof_H 	H 	0.8995	0.5971	0.0017	0.09
Mof_H 	H 	0.9195	0.1957	0.1374	-0.043
Mof_H 	H 	0.5803	0.3941	0.1879	0.01
Mof_H 	H 	0.9325	0.9302	0.559	-0.111
Mof_H 	H 	0.1751	0.3963	0.3087	0.181
Mof_H 	H 	0.6454	0.7654	0.6393	-0.002
Mof_H 	H 	0.0803	0.8121	0.6059	0.293
Mof_H 	H 	0.4502	0.1555	0.0432	0.031
Mof_H 	H 	0.8102	0.4446	0.6909	0.756
Mof_H 	H 	0.1959	0.9573	0.6302	0.074
Mof_H 	H 	0.9989	0.3997	0.1643	-0.17
Mof_H 	H 	0.4012	0.898	0.3368	0.028
Mof_H 	H 	0.3167	0.3243	0.6009	0.676
Mof_H 	H 	0.4195	0.9417	0.1374	0.007
Mof_H 	H 	0.4677	0.834	0.824	0.075
Mof_H 	H 	0.6751	0.9124	0.3087	0.194
Mof_H 	H 	0.5327	0.9005	0.7812	0.089
Mof_H 	H 	0.5322	0.4346	0.1689	0.05
Mof_H 	H 	0.9194	0.3207	0.4937	0.028
Mof_H 	H 	0.9325	0.441	0.3712	-0.111
Mof_H 	H 	0.3099	0.087	0.3154	-1.003
Mof_H 	H 	0.9509	0.9821	0.8233	0.747
Mof_H 	H 	0.2122	0.0612	0.7789	0.101
Mof_H 	H 	0.5767	0.7393	0.8173	-0.321
Mof_H 	H 	0.8473	0.6133	0.9921	0.155
Mof_H 	H 	0.6923	0.693	0.7348	-0.564
Mof_H 	H 	0.7026	0.9337	0.3506	0.184
Mof_H 	H 	0.9498	0.8891	0.786	0.457
Mof_H 	H 	0.1317	0.9691	0.5594	0.079
Mof_H 	H 	0.3102	0.3091	0.5554	0.688
Mof_H 	H 	0.4208	0.2106	0.9036	0.871
Mof_H 	H 	0.3437	0.9818	0.407	0.082
Mof_H 	H 	0.4196	0.1995	0.0706	0.053
Mof_H 	H 	0.8428	0.4486	0.3546	0.161
Mof_H 	H 	0.352	0.414	0.1031	0.148
Mof_H 	H 	0.9227	0.4467	0.7704	-0.088
Mof_H 	H 	0.5773	0.2296	0.5533	-0.066
Mof_H 	H 	0.1898	0.4446	0.6909	0.641
Mof_H 	H 	0.3546	0.8739	0.2346	-0.002
Mof_H 	H 	0.6897	0.0574	0.2458	1.31
Mof_H 	H 	0.6467	0.6631	0.7382	-1.718
Mof_H 	H 	0.5309	0.7335	0.5662	0.056
Mof_H 	H 	0.0013	0.454	0.2456	0.195
Mof_H 	H 	0.4169	0.0981	0.3111	-0.245
Mof_H 	H 	0.6437	0.1103	0.3127	1.321
Mof_H 	H 	0.6244	0.715	0.8212	-0.457
Mof_H 	H 	0.469	0.3615	0.2034	0.049
Mof_H 	H 	0.9975	0.8974	0.8198	-0.242
Mof_H 	H 	0.8494	0.4302	0.7128	0.766
Mof_H 	H 	0.3428	0.4486	0.094	0.16
Mof_H 	H 	0.2878	0.0612	0.2823	0.098
Mof_H 	H 	0.0767	0.078	0.8173	-0.322
Mof_H 	H 	0.6745	0.4207	0.7988	0.663
Mof_H 	H 	0.5323	0.99	0.166	0.075
Mof_H 	H 	0.0491	0.8412	0.0179	0.867
Mof_H 	H 	0.8023	0.2448	0.2607	-0.139
Mof_H 	H 	0.4206	0.4042	0.1848	0.056
Mof_H 	H 	0.5323	0.176	0.01	0.075
Mof_H 	H 	0.6854	0.0141	0.2387	1.423
Mof_H 	H 	0.1529	0.0701	0.8303	-1.094
Mof_H 	H 	0.0502	0.8891	0.786	0.551
Mof_H 	H 	0.0472	0.829	0.5701	0.52
Mof_H 	H 	0.5486	0.9218	0.0908	0.028
Mof_H 	H 	0.7798	0.8981	0.7564	0.061
Mof_H 	H 	0.9514	0.169	0.0908	0.263
Mof_H 	H 	0.6245	0.2467	0.9101	1.909
Mof_H 	H 	0.9206	0.7806	0.1848	0.006
Mof_H 	H 	0.5675	0.6288	0.559	-0.107
Mof_H 	H 	0.1005	0.9983	0.5954	0.066
Mof_H 	H 	0.4692	0.1774	0.0097	0.079
Mof_H 	H 	0.0491	0.4151	0.1867	0.179
Mof_H 	H 	0.1244	0.1788	0.285	-0.46
Mof_H 	H 	0.3683	0.9691	0.4097	0.089
Mof_H 	H 	0.5491	0.8133	0.5849	0.04
Mof_H 	H 	0.4195	0.1957	0.0583	0.007
Mof_H 	H 	0.5497	0.3686	0.2027	0.006
Mof_H 	H 	0.85	0.3788	0.6093	0.767
Mof_H 	H 	0.6854	0.2246	0.9859	1.404
Mof_H 	H 	0.0322	0.8311	0.5654	-0.167
Mof_H 	H 	0.0963	0.667	0.1027	0.028
Mof_H 	H 	0.031	0.3615	0.1581	-0.104
Mof_H 	H 	0.6572	0.4486	0.094	0.16
Mof_H 	H 	0.5472	0.829	0.2589	-0.015
Mof_H 	H 	0.625	0.6256	0.5409	-0.084
Mof_H 	H 	0.625	0.4591	0.0847	-0.091
Mof_H 	H 	0.85	0.2305	0.6212	0.767
Mof_H 	H 	0.352	0.8969	0.3109	0.134
Mof_H 	H 	0.2202	0.2436	0.1417	0.058
Mof_H 	H 	0.8146	0.7613	0.9859	1.399
Mof_H 	H 	0.6437	0.6873	0.7976	1.321
Mof_H 	H 	0.8841	0.4102	0.6047	0.798
Mof_H 	H 	0.9509	0.8133	0.2284	0.153
Mof_H 	H 	0.0011	0.3997	0.1643	0.226
Mof_H 	H 	0.9233	0.078	0.8173	-0.287
Mof_H 	H 	0.9697	0.222	0.1013	-0.18
Mof_H 	H 	0.9012	0.4388	0.3368	0.038
Mof_H 	H 	0.3999	0.4025	0.0004	0.116
Mof_H 	H 	0.6485	0.9329	0.1784	-0.004
Mof_H 	H 	0.969	0.8419	0.2034	-0.012
Mof_H 	H 	0.4169	0.213	0.9019	-0.243
Mof_H 	H 	0.8044	0.6732	0.0437	0.159
Mof_H 	H 	0.1771	0.9978	0.6346	-0.07
Mof_H 	H 	0.8428	0.906	0.5514	0.161
Mof_H 	H 	0.9678	0.8311	0.5654	-0.038
Mof_H 	H 	0.5803	0.8121	0.2062	0.01
Mof_H 	H 	0.5806	0.3207	0.827	0.054
Mof_H 	H 	0.0803	0.5606	0.8792	0.03
Mof_H 	H 	0.3755	0.6634	0.7533	1.935
Mof_H 	H 	0.1977	0.7393	0.9841	-0.139
Mof_H 	H 	0.6906	0.6898	0.734	-0.126
Mof_H 	H 	0.4502	0.8877	0.8445	0.031
Mof_H 	H 	0.1833	0.3991	0.6757	0.631
Mof_H 	H 	0.1901	0.6846	0.913	-0.986
Mof_H 	H 	0.8637	0.7819	0.9749	0.191
Mof_H 	H 	0.5321	0.7956	0.1583	0.046
Mof_H 	H 	0.1854	0.0141	0.7754	1.407
Mof_H 	H 	0.5011	0.7646	0.1643	0.049
Mof_H 	H 	0.3041	0.9573	0.3271	0.074
Mof_H 	H 	0.5472	0.7411	0.5701	-0.015
Mof_H 	H 	0.9509	0.1767	0.1588	0.747
Mof_H 	H 	0.5309	0.8327	0.2665	0.056
Mof_H 	H 	0.3995	0.4046	0.0017	0.08
Mof_H 	H 	0.7194	0.8011	0.6377	0.053
Mof_H 	H 	0.9514	0.9092	0.0782	0.262
Mof_H 	H 	0.9012	0.898	0.5612	0.038
Mof_H 	H 	0.0804	0.9294	0.8005	0.549
Mof_H 	H 	0.9195	0.8626	0.0583	-0.045
Mof_H 	H 	0.6429	0.1901	0.9705	-0.377
Mof_H 	H 	0.1906	0.266	0.3102	-0.123
Mof_H 	H 	0.9503	0.7973	0.6314	0.185
Mof_H 	H 	0.3471	0.0701	0.2398	-1.088
Mof_H 	H 	0.0675	0.9302	0.559	-0.104
Mof_H 	H 	0.4673	0.8807	0.0995	0.089
Mof_H 	H 	0.9275	0.4338	0.3936	0.141
Mof_H 	H 	0.6317	0.9691	0.4097	0.089
Mof_H 	H 	0.6001	0.9996	0.4021	0.108
Mof_H 	H 	0.9196	0.8711	0.0706	0.509
Mof_H 	H 	0.9986	0.9819	0.8533	-0.313
Mof_H 	H 	0.8533	0.6631	0.9249	-1.693
Mof_H 	H 	0.8494	0.2872	0.7174	0.764
Mof_H 	H 	0.4081	0.178	0.9417	-1.269
Mof_H 	H 	0.4673	0.9005	0.7812	0.089
Mof_H 	H 	0.3473	0.6133	0.6212	0.123
Mof_H 	H 	0.0767	0.7393	0.922	-0.316
Mof_H 	H 	0.9691	0.8327	0.5662	-0.072
Mof_H 	H 	0.031	0.8419	0.2034	-0.104
Mof_H 	H 	0.4987	0.454	0.2084	0.035
Mof_H 	H 	0.852	0.8969	0.586	0.154
Mof_H 	H 	0.6506	0.2826	0.7128	0.678
Mof_H 	H 	0.8437	0.4252	0.407	0.094
Mof_H 	H 	0.9208	0.693	0.9036	0.868
Mof_H 	H 	0.7122	0.7177	0.7789	0.098
Mof_H 	H 	0.0805	0.8626	0.0583	-0.029
Mof_H 	H 	0.7798	0.2436	0.1417	0.061
Mof_H 	H 	0.5773	0.4467	0.6763	-0.066
Mof_H 	H 	0.3755	0.2467	0.9101	1.925
Mof_H 	H 	0.6159	0.3953	0.5898	0.699
Mof_H 	H 	0.5323	0.834	0.824	0.075
Mof_H 	H 	0.0792	0.693	0.9036	0.852
Mof_H 	H 	0.1454	0.7654	0.1261	-0.01
Mof_H 	H 	0.6317	0.4406	0.0309	0.076
Mof_H 	H 	0.648	0.414	0.1031	0.155
Mof_H 	H 	0.4275	0.6064	0.5662	0.114
Mof_H 	H 	0.148	0.414	0.3109	0.115
Mof_H 	H 	0.2878	0.2211	0.9388	0.098
Mof_H 	H 	0.1563	0.9818	0.5748	0.074
Mof_H 	H 	0.648	0.8969	0.3109	0.134
Mof_H 	H 	0.4233	0.7393	0.8173	-0.32
Mof_H 	H 	0.8229	0.3654	0.3632	-0.117
Mof_H 	H 	0.7798	0.8583	0.1019	0.061
Mof_H 	H 	0.5327	0.2188	0.1193	0.089
Mof_H 	H 	0.1977	0.2448	0.2607	-0.141
Mof_H 	H 	0.0919	0.0583	0.822	-1.279
Mof_H 	H 	0.8563	0.2024	0.3127	1.319
Mof_H 	H 	0.8563	0.1103	0.7976	1.319
Mof_H 	H 	0.3515	0.2455	0.0671	-0.004
Mof_H 	H 	0.8637	0.0251	0.807	0.193
Mof_H 	H 	0.5803	0.5606	0.6814	0.049
Mof_H 	H 	0.0025	0.9224	0.1026	0.175
Mof_H 	H 	0.1527	0.0079	0.6212	0.11
Mof_H 	H 	0.3756	0.1062	0.285	-0.457
Mof_H 	H 	0.8995	0.4046	0.4029	0.087
Mof_H 	H 	0.9975	0.9224	0.1026	-0.241
Mof_H 	H 	0.9692	0.9903	0.8226	-0.363
Mof_H 	H 	0.7961	0.6295	0.0346	-0.082
Mof_H 	H 	0.3563	0.2024	0.8897	1.315
Mof_H 	H 	0.0675	0.6288	0.0698	-0.112
Mof_H 	H 	0.4227	0.3237	0.7704	-0.067
Mof_H 	H 	0.3167	0.2766	0.6757	0.675
Mof_H 	H 	0.5925	0.4756	0.7722	0.709
Mof_H 	H 	0.0919	0.7637	0.9417	-1.26
Mof_H 	H 	0.9196	0.1995	0.1289	0.51
Mof_H 	H 	0.1529	0.7602	0.9299	-1.077
Mof_H 	H 	0.5321	0.8417	0.6373	0.045
Mof_H 	H 	0.922	0.6217	0.9354	0.008
Mof_H 	H 	0.6956	0.9563	0.3268	0.041
Mof_H 	H 	0.0794	0.4042	0.2194	-0.019
Mof_H 	H 	0.0831	0.6889	0.9019	-0.244
Mof_H 	H 	0.8437	0.9818	0.5748	0.093
Mof_H 	H 	0.6745	0.3781	0.5793	0.664
Mof_H 	H 	0.5805	0.9417	0.1374	0.008
Mof_H 	H 	0.2039	0.9654	0.5949	-0.062
Mof_H 	H 	0.0688	0.3389	0.801	0.636
Mof_H 	H 	0.0675	0.441	0.3712	-0.104
Mof_H 	H 	0.4509	0.1767	0.0179	-0.021
Mof_H 	H 	0.9691	0.4338	0.2665	-0.072
Mof_H 	H 	0.1956	0.9563	0.6295	0.044
Mof_H 	H 	0.3229	0.9978	0.3632	-0.092
Mof_H 	H 	0.0491	0.1767	0.1588	0.871
Mof_H 	H 	0.1901	0.087	0.7716	-1.001
Mof_H 	H 	0.6363	0.193	0.9749	0.194
Mof_H 	H 	0.8841	0.1945	0.5898	0.798
Mof_H 	H 	0.4197	0.8121	0.2062	0.01
Mof_H 	H 	0.1437	0.1103	0.7976	1.306
Mof_H 	H 	0.0803	0.1208	0.6814	0.03
Mof_H 	H 	0.6906	0.266	0.9558	-0.124
Mof_H 	H 	0.1906	0.6898	0.9558	-0.122
Mof_H 	H 	0.9673	0.9005	0.1193	-0.057
Mof_H 	H 	0.1833	0.3243	0.7234	0.631
Mof_H 	H 	0.8721	0.4784	0.6715	0.786
Mof_H 	H 	0.4275	0.4338	0.0402	0.126
Mof_H 	H 	0.2026	0.6494	0.0663	0.17
Mof_H 	H 	0.5963	0.8973	0.333	0.024
Mof_H 	H 	0.3494	0.4302	0.7174	0.696
Mof_H 	H 	0.9673	0.2188	0.0995	-0.058
Mof_H 	H 	0.6977	0.7393	0.7552	-0.148
Mof_H 	H 	0.922	0.3137	0.3783	0.009
Mof_H 	H 	0.5688	0.199	0.6611	0.696
Mof_H 	H 	0.6001	0.4025	0.0004	0.109
Mof_H 	H 	0.0014	0.1467	0.1286	0.084
Mof_H 	H 	0.4197	0.3941	0.1879	0.01
Mof_H 	H 	0.6005	0.4046	0.0017	0.078
Mof_H 	H 	0.9206	0.4042	0.2194	0.006
Mof_H 	H 	0.9679	0.8417	0.2044	0.005
Mof_H 	H 	0.5502	0.8969	0.786	-0.023
Mof_H 	H 	0.531	0.8419	0.6385	0.049
Mof_H 	H 	0.4673	0.2188	0.1193	0.089
Mof_H 	H 	0.3637	0.0251	0.2181	0.194
Mof_H 	H 	0.6854	0.7613	0.7754	1.423
Mof_H 	H 	0.8756	0.715	0.8938	-0.438
Mof_H 	H 	0.4989	0.7646	0.1643	0.049
Mof_H 	H 	0.0486	0.169	0.0908	0.243
Mof_H 	H 	0.8103	0.7542	0.9426	1.289
Mof_H 	H 	0.0767	0.1827	0.2607	-0.322
Mof_H 	H 	0.9169	0.213	0.3111	-0.227
Mof_H 	H 	0.5498	0.8877	0.8445	0.032
Mof_H 	H 	0.0308	0.9903	0.8226	-0.444
Mof_H 	H 	0.3041	0.6729	0.6302	0.074
Mof_H 	H 	0.1506	0.2826	0.5698	0.652
Mof_H 	H 	0.6506	0.4302	0.7174	0.677
Mof_H 	H 	0.2122	0.2211	0.2823	0.101
Mof_H 	H 	0.4012	0.4388	0.102	0.029
Mof_H 	H 	0.4037	0.8973	0.333	0.024
Mof_H 	H 	0.2961	0.6295	0.5949	-0.081
Mof_H 	H 	0.1563	0.4252	0.407	0.074
Mof_H 	H 	0.5327	0.8807	0.0995	0.089
Mof_H 	H 	0.8546	0.7654	0.1261	-0.01
Mof_H 	H 	0.8146	0.2246	0.2387	1.419
Mof_H 	H 	0.4498	0.214	0.1109	-0.023
Mof_H 	H 	0.2202	0.8981	0.7564	0.058
Mof_H 	H 	0.2806	0.3623	0.1634	0.053
Mof_H 	H 	0.1527	0.6133	0.9921	0.125
Mof_H 	H 	0.0498	0.8877	0.0432	0.315
Mof_H 	H 	0.9986	0.8714	0.0181	-0.312
Mof_H 	H 	0.9539	0.7747	0.2157	0.119
Mof_H 	H 	0.578	0.0646	0.3783	0.02
Mof_H 	H 	0.0025	0.8974	0.8198	0.175
Mof_H 	H 	0.9697	0.8987	0.1207	-0.178
Mof_H 	H 	0.9509	0.7716	0.5849	0.153
Mof_H 	H 	0.9502	0.9568	0.8445	0.319
Mof_H 	H 	0.85	0.3907	0.7695	0.765
Mof_H 	H 	0.6745	0.2012	0.6219	0.664
Mof_H 	H 	0.3255	0.2012	0.6219	0.682
Mof_H 	H 	0.0303	0.8987	0.1207	-0.25
Mof_H 	H 	0.2961	0.4051	0.0346	-0.108
Mof_H 	H 	0.2202	0.8583	0.1019	0.058
Mof_H 	H 	0.6977	0.0159	0.2607	-0.148
Mof_H 	H 	0.6833	0.3991	0.7234	0.652
Mof_H 	H 	0.3494	0.2826	0.7128	0.697
Mof_H 	H 	0.9197	0.1208	0.6814	0.016
Mof_H 	H 	0.2194	0.3623	0.1989	0.052
Mof_H 	H 	0.4678	0.8311	0.2657	0.05
Mof_H 	H 	0.4679	0.7956	0.1583	0.046
Mof_H 	H 	0.1363	0.0251	0.807	0.184
Mof_H 	H 	0.0925	0.4756	0.7034	0.659
Mof_H 	H 	0.6429	0.0295	0.2196	-0.383
Mof_H 	H 	0.0025	0.1802	0.0776	0.174
Mof_H 	H 	0.8721	0.3285	0.8069	0.784
Mof_H 	H 	0.4697	0.222	0.1207	0.109
Mof_H 	H 	0.4514	0.9092	0.831	0.027
Mof_H 	H 	0.1429	0.7804	0.9705	-0.381
Mof_H 	H 	0.4197	0.1208	0.4394	0.049
Mof_H 	H 	0.6527	0.6133	0.6212	0.123
Mof_H 	H 	0.9312	0.4621	0.6611	0.816
Mof_H 	H 	0.0472	0.7411	0.171	0.519
Mof_H 	H 	0.0309	0.8327	0.5662	-0.224
Mof_H 	H 	0.5011	0.3997	0.2354	0.049
Mof_H 	H 	0.4509	0.4151	0.2284	0.04
Mof_H 	H 	0.9233	0.1827	0.2607	-0.287
Mof_H 	H 	0.4509	0.9821	0.1588	-0.021
Mof_H 	H 	0.5498	0.1555	0.0432	0.032
Mof_H 	H 	0.4037	0.4357	0.1027	0.013
Mof_H 	H 	0.5919	0.0583	0.2363	-1.275
Mof_H 	H 	0.0461	0.7843	0.559	0.123
Mof_H 	H 	0.5675	0.441	0.0698	-0.115
Mof_H 	H 	0.0309	0.4338	0.2665	-0.224
Mof_H 	H 	0.6245	0.0899	0.3366	1.935
Mof_H 	H 	0.852	0.6891	0.1031	0.174
Mof_H 	H 	0.1437	0.6873	0.8897	1.288
Mof_H 	H 	0.0491	0.7716	0.5849	0.179
Mof_H 	H 	0.3249	0.9124	0.3087	0.193
Mof_H 	H 	0.1363	0.193	0.2181	0.184
Mof_H 	H 	0.5804	0.9294	0.1289	0.053
Mof_H 	H 	0.4691	0.4338	0.1673	0.056
Mof_H 	H 	0.4692	0.8323	0.8226	0.079
Mof_H 	H 	0.4194	0.5063	0.6793	0.055
Mof_H 	H 	0.6317	0.5903	0.5594	0.089
Mof_H 	H 	0.3999	0.9996	0.4021	0.108
Mof_H 	H 	0.9081	0.178	0.2363	-1.271
Mof_H 	H 	0.1771	0.6368	0.0022	-0.054
Mof_H 	H 	0.1279	0.3285	0.8069	0.644
Mof_H 	H 	0.1906	0.0442	0.734	-0.123
Mof_H 	H 	0.6467	0.0751	0.3369	-1.718
Mof_H 	H 	0.8683	0.5903	0.0309	0.089
Mof_H 	H 	0.922	0.0646	0.6863	0.009
Mof_H 	H 	0.3995	0.9983	0.4029	0.075
Mof_H 	H 	0.5321	0.3627	0.2044	0.046
Mof_H 	H 	0.6897	0.1884	0.9426	1.292
Mof_H 	H 	0.9275	0.6064	0.0402	0.129
Mof_H 	H 	0.8167	0.3991	0.6757	0.743
Mof_H 	H 	0.1467	0.6631	0.9249	-1.685
Mof_H 	H 	0.8637	0.193	0.2181	0.193
Mof_H 	H 	0.9679	0.7956	0.6373	0.005
Mof_H 	H 	0.3995	0.5971	0.5954	0.075
Mof_H 	H 	0.3546	0.7654	0.6393	-0.002
Mof_H 	H 	0.0725	0.9598	0.5662	0.093
Mof_H 	H 	0.6527	0.0079	0.3867	0.123
Mof_H 	H 	0.4196	0.9294	0.1289	0.052
Mof_H 	H 	0.4325	0.9302	0.3712	-0.108
Mof_H 	H 	0.6771	0.3654	0.0022	-0.076
Mof_H 	H 	0.1454	0.3607	0.2346	-0.01
Mof_H 	H 	0.8146	0.0141	0.7754	1.419
Mof_H 	H 	0.0322	0.4346	0.2657	-0.167
Mof_H 	H 	0.5794	0.7806	0.5958	0.057
Mof_H 	H 	0.9989	0.7646	0.6003	-0.17
Mof_H 	H 	0.0497	0.7973	0.6314	0.355
Mof_H 	H 	0.9514	0.9218	0.831	0.262
Mof_H 	H 	0.9197	0.7938	0.1879	0.186
Mof_H 	H 	0.7961	0.9654	0.5949	-0.101
Mof_H 	H 	0.6506	0.2872	0.5698	0.678
Mof_H 	H 	0.422	0.6217	0.6863	0.02
Mof_H 	H 	0.4975	0.8974	0.0776	0.075
Mof_H 	H 	0.3094	0.6898	0.734	-0.126
Mof_H 	H 	0.0327	0.8807	0.7812	-0.117
Mof_H 	H 	0.3471	0.7602	0.8303	-1.088
Mof_H 	H 	0.0988	0.6632	0.102	0.025
Mof_H 	H 	0.4206	0.8152	0.2194	0.056
Mof_H 	H 	0.0303	0.222	0.1013	-0.252
Mof_H 	H 	0.4514	0.169	0.0782	0.027
Mof_H 	H 	0.9037	0.4357	0.333	0.024
Mof_H 	H 	0.0773	0.3237	0.5533	-0.053
Mof_H 	H 	0.0323	0.176	0.166	-0.305
Mof_H 	H 	0.3571	0.1901	0.9705	-0.381
Mof_H 	H 	0.469	0.7966	0.1581	0.049
Mof_H 	H 	0.5502	0.214	0.1109	-0.023
Mof_H 	H 	0.5988	0.898	0.3368	0.028
Mof_H 	H 	0.8249	0.9124	0.6037	0.21
Mof_H 	H 	0.2961	0.9654	0.3705	-0.081
Mof_H 	H 	0.6485	0.2455	0.0671	-0.003
Mof_H 	H 	0.9986	0.1467	0.1286	-0.314
Mof_H 	H 	0.8167	0.2766	0.6009	0.743
Mof_H 	H 	0.7878	0.0612	0.7789	0.105
Mof_H 	H 	0.125	0.4591	0.3744	-0.074
Mof_H 	H 	0.3167	0.3991	0.7234	0.674
Mof_H 	H 	0.1771	0.3654	0.3632	-0.07
Mof_H 	H 	0.1897	0.1884	0.2458	1.296
Mof_H 	H 	0.078	0.3137	0.3783	0.033
Mof_H 	H 	0.8229	0.6368	0.0022	-0.101
Mof_H 	H 	0.35	0.2305	0.6093	0.694
Mof_H 	H 	0.4986	0.9819	0.1286	0.059
Mof_H 	H 	0.8999	0.9996	0.5975	0.123
Mof_H 	H 	0.3103	0.0574	0.2458	1.309
Mof_H 	H 	0.4679	0.8417	0.6373	0.045
Mof_H 	H 	0.8044	0.3705	0.3268	0.038
Mof_H 	H 	0.5303	0.8987	0.778	0.108
Mof_H 	H 	0.648	0.6891	0.586	0.134
Mof_H 	H 	0.0491	0.9821	0.8233	0.87
Mof_H 	H 	0.0806	0.3207	0.4937	0.043
Mof_H 	H 	0.8094	0.6898	0.9558	-0.119
Mof_H 	H 	0.0773	0.4467	0.7704	-0.053
Mof_H 	H 	0.35	0.3907	0.6212	0.694
Mof_H 	H 	0.5988	0.4388	0.102	0.032
Mof_H 	H 	0.5725	0.9598	0.3936	0.115
Mof_H 	H 	0.0309	0.7335	0.1673	-0.223
Mof_H 	H 	0.4194	0.3207	0.827	0.054
Mof_H 	H 	0.3255	0.3781	0.5793	0.683
Mof_H 	H 	0.6529	0.0701	0.2398	-1.087
Mof_H 	H 	0.9987	0.7544	0.2084	-0.201
Mof_H 	H 	0.5806	0.5063	0.6793	0.054
Mof_H 	H 	0.5502	0.8891	0.1031	-0.022
Mof_H 	H 	0.0498	0.9568	0.8445	0.316
Mof_H 	H 	0.5792	0.2106	0.9036	0.864
Mof_H 	H 	0.8249	0.6913	0.0876	0.205
Mof_H 	H 	0.0013	0.7544	0.2084	0.195
Mof_H 	H 	0.5963	0.4357	0.1027	0.029
Mof_H 	H 	0.9037	0.667	0.1027	0.029
Mof_H 	H 	0.4502	0.9568	0.1123	0.031
Mof_H 	H 	0.5804	0.1995	0.0706	0.053
Mof_H 	H 	0.8683	0.4406	0.4097	0.102
Mof_H 	H 	0.0773	0.2296	0.6763	-0.053
Mof_H 	H 	0.1159	0.1945	0.5898	0.661
Mof_H 	H 	0.1959	0.3698	0.3271	0.074
Mof_H 	H 	0.9679	0.3627	0.1583	0.005
Mof_H 	H 	0.3102	0.4446	0.7537	0.686
Mof_H 	H 	0.6572	0.906	0.3546	0.141
Mof_H 	H 	0.7122	0.0612	0.2823	0.098
Mof_H 	H 	0.9987	0.454	0.2456	-0.201
Mof_H 	H 	0.6563	0.593	0.5748	0.083
Mof_H 	H 	0.5725	0.6064	0.5662	0.115
Mof_H 	H 	0.4987	0.7916	0.2456	0.035
Mof_H 	H 	0.3546	0.3607	0.1261	-0.003
Mof_H 	H 	0.9081	0.7637	0.9417	-1.251
Mof_H 	H 	0.4514	0.9218	0.0908	0.027
Mof_H 	H 	0.8077	0.2652	0.307	-0.562
Mof_H 	H 	0.8546	0.8739	0.6393	-0.009
Mof_H 	H 	0.3077	0.2652	0.9582	-0.561
Mof_H 	H 	0.0792	0.0964	0.7894	0.864
Mof_H 	H 	0.4498	0.8969	0.786	-0.023
Mof_H 	H 	0.6923	0.0418	0.307	-0.564
Mof_H 	H 	0.15	0.3907	0.7695	0.648
Mof_H 	H 	0.5497	0.8341	0.6314	0.006
Mof_H 	H 	0.0803	0.7938	0.1879	0.292
Mof_H 	H 	0.6001	0.5979	0.5975	0.108
Mof_H 	H 	0.422	0.0646	0.3783	0.02
Mof_H 	H 	0.0806	0.5063	0.827	0.043
Mof_H 	H 	0.7039	0.6295	0.5949	-0.079
Mof_H 	H 	0.0497	0.3686	0.1659	0.355
Mof_H 	H 	0.8103	0.0574	0.8116	1.307
Mof_H 	H 	0.6898	0.3091	0.5554	0.667
Mof_H 	H 	0.3515	0.9329	0.1784	-0.004
Mof_H 	H 	0.5919	0.178	0.9417	-1.256
Mof_H 	H 	0.8533	0.2618	0.3369	-1.719
Mof_H 	H 	0.0322	0.7343	0.1689	-0.167
Mof_H 	H 	0.9312	0.199	0.5379	0.816
Mof_H 	H 	0.6901	0.087	0.3154	-1.003
Mof_H 	H 	0.3099	0.6846	0.7716	-1.003
Mof_H 	H 	0.5831	0.0981	0.3111	-0.245
Mof_H 	H 	0.531	0.7966	0.1581	0.049
Mof_H 	H 	0.1245	0.6634	0.9101	1.888
Mof_H 	H 	0.8077	0.0418	0.7348	-0.562
Mof_H 	H 	0.8563	0.6873	0.8897	1.3
Mof_H 	H 	0.0013	0.7916	0.546	0.195
Mof_H 	H 	0.1279	0.1931	0.5216	0.644
Mof_H 	H 	0.078	0.0646	0.6863	0.033
Mof_H 	H 	0.5773	0.3237	0.7704	-0.066
Mof_H 	H 	0.0014	0.9819	0.8533	0.084
Mof_H 	H 	0.4539	0.7843	0.2253	0.031
Mof_H 	H 	0.3841	0.3953	0.5898	0.715
Mof_H 	H 	0.8721	0.1931	0.5216	0.786
Mof_H 	H 	0.1005	0.4046	0.4029	0.066
Mof_H 	H 	0.0804	0.8711	0.0706	0.548
Mof_C 	C 	0.6807	0.6467	0.6165	0.253
Mof_C 	C 	0.5492	0.1808	0.0444	-0.07
Mof_C 	C 	0.332	0.0657	0.3133	3.263
Mof_C 	C 	0.6265	0.9522	0.3517	0.208
Mof_C 	C 	0.0491	0.8089	0.2018	-0.631
Mof_C 	C 	0.0473	0.1835	0.6784	-0.169
Mof_C 	C 	0.8735	0.3995	0.3517	0.233
Mof_C 	C 	0.4527	0.1835	0.5051	-0.19
Mof_C 	C 	0.8653	0.6096	0.0118	-0.403
Mof_C 	C 	0.8684	0.7222	0.9487	-0.122
Mof_C 	C 	0.6278	0.7604	0.8116	3.83
Mof_C 	C 	0.832	0.2476	0.3133	3.263
Mof_C 	C 	0.1207	0.2391	0.5778	1.697
Mof_C 	C 	0.3204	0.9374	0.3328	-0.588
Mof_C 	C 	0.8579	0.3792	0.7858	-2.674
Mof_C 	C 	0.4509	0.3929	0.2018	-0.106
Mof_C 	C 	0.8653	0.4022	0.3904	-0.35
Mof_C 	C 	0.295	0.338	0.1446	-0.137
Mof_C 	C 	0.3115	0.0417	0.2824	-0.338
Mof_C 	C 	0.3993	0.3244	0.5368	-2.43
Mof_C 	C 	0.5456	0.315	0.9241	0.055
Mof_C 	C 	0.3793	0.4222	0.7609	1.828
Mof_C 	C 	0.1807	0.9698	0.6165	0.198
Mof_C 	C 	0.5	0.5533	0.6804	0.024
Mof_C 	C 	0.5	0.1271	0.4467	0.024
Mof_C 	C 	-6.22532e-33	0.1642	0.679	-0.042
Mof_C 	C 	0.3347	0.0368	0.2424	-3.834
Mof_C 	C 	0.5898	0.6757	0.6353	0.299
Mof_C 	C 	0.3653	0.6096	0.5978	-0.312
Mof_C 	C 	0.1002	0.7169	0.914	1.397
Mof_C 	C 	0.8735	0.6483	0.0478	0.269
Mof_C 	C 	0.9509	0.1957	0.1128	-0.814
Mof_C 	C 	0.1007	0.2124	0.5368	-2.245
Mof_C 	C 	0.6421	0.2142	0.6208	-2.371
Mof_C 	C 	0.5	0.2062	0.1056	-0.469
Mof_C 	C 	0.9544	0.6091	0.9241	0.118
Mof_C 	C 	0.8115	0.2407	0.2824	-0.362
Mof_C 	C 	0.3998	0.1971	0.914	1.42
Mof_C 	C 	0.0491	0.9171	0.8043	-0.938
Mof_C 	C 	0.0474	0.5724	0.8903	-0.092
Mof_C 	C 	0.5	0.1731	0.0219	-0.395
Mof_C 	C 	0.5	0.9781	0.1512	-0.395
Mof_C 	C 	0.5	0.8185	0.2511	-0.292
Mof_C 	C 	0.6016	0.921	0.3581	0.244
Mof_C 	C 	0.6796	0.3954	0.0626	-0.603
Mof_C 	C 	0.8803	0.0909	0.7783	-4.041
Mof_C 	C 	0.1016	0.6419	0.079	0.222
Mof_C 	C 	0.7726	0.8366	0.1391	0.043
Mof_C 	C 	0.9102	0.3647	0.3243	0.284
Mof_C 	C 	0.1796	0.9374	0.6046	-0.543
Mof_C 	C 	0.9509	0.3929	0.1911	-0.406
Mof_C 	C 	0.4059	0.0194	0.2765	0.392
Mof_C 	C 	0.8376	0.9128	0.7305	0.098
Mof_C 	C 	0.5941	0.2571	0.9806	0.39
Mof_C 	C 	0.1207	0.3387	0.7609	1.696
Mof_C 	C 	0.2274	0.8609	0.6975	0.042
Mof_C 	C 	0.6347	0.6096	0.5978	-0.313
Mof_C 	C 	0.5	0.5148	0.679	0.06
Mof_C 	C 	0.9526	0.1097	0.6821	0.005
Mof_C 	C 	6.22532e-33	0.7915	0.6219	-0.112
Mof_C 	C 	6.03078e-33	0.8488	0.0219	0.869
Mof_C 	C 	0.6653	0.7576	0.7944	-3.834
Mof_C 	C 	0.5	0.3595	0.1376	0.318
Mof_C 	C 	0.4059	0.7235	0.7429	0.392
Mof_C 	C 	0.0491	0.3929	0.1911	-0.633
Mof_C 	C 	0.4508	0.8636	0.8192	-0.069
Mof_C 	C 	0.7726	0.3025	0.1634	0.044
Mof_C 	C 	0.545	0.3235	0.7825	0.095
Mof_C 	C 	0.5474	0.3179	0.8903	-0.131
Mof_C 	C 	0.6002	0.086	0.2831	1.43
Mof_C 	C 	0.9059	0.0194	0.7429	0.379
Mof_C 	C 	-6.22532e-33	0.8185	0.5674	0.03
Mof_C 	C 	0.045	0.2175	0.6765	0.059
Mof_C 	C 	0.6265	0.6483	0.6005	0.208
Mof_C 	C 	0.5	0.321	0.8358	0.06
Mof_C 	C 	0.8204	0.9374	0.6046	-0.647
Mof_C 	C 	0.5	0.819	0.213	0.163
Mof_C 	C 	0.6347	0.4022	0.0118	-0.366
Mof_C 	C 	0.1207	0.4222	0.6613	1.696
Mof_C 	C 	-3.11266e-33	0.2444	0.1738	0.049
Mof_C 	C 	0.0898	0.9596	0.6353	0.297
Mof_C 	C 	0.5474	0.5724	0.6821	-0.131
Mof_C 	C 	0.5941	0.0194	0.2765	0.392
Mof_C 	C 	0.5898	0.9596	0.3243	0.299
Mof_C 	C 	0.4251	0.2653	0.662	-0.289
Mof_C 	C 	0.4544	0.315	0.9241	0.055
Mof_C 	C 	0.205	0.338	0.1934	-0.142
Mof_C 	C 	0.1796	0.3954	0.3328	-0.543
Mof_C 	C 	0.4526	0.1097	0.4276	-0.131
Mof_C 	C 	0.455	0.459	0.6765	0.095
Mof_C 	C 	0.5492	0.8636	0.8192	-0.07
Mof_C 	C 	0.6316	0.0513	0.2778	-0.148
Mof_C 	C 	0.5491	0.8089	0.6071	-0.106
Mof_C 	C 	-4.66899e-33	0.3781	0.1696	-0.112
Mof_C 	C 	0.5491	0.9171	0.1128	-0.047
Mof_C 	C 	0.8803	0.6874	0.9091	-3.985
Mof_C 	C 	0.2726	0.3025	0.1391	0.038
Mof_C 	C 	0.9509	0.9171	0.8043	-0.813
Mof_C 	C 	0.2946	0.8402	0.7319	-0.155
Mof_C 	C 	0.633	0.4276	0.0904	-0.55
Mof_C 	C 	0.0474	0.3179	0.4276	-0.091
Mof_C 	C 	0.5	0.4326	0.1815	-0.293
Mof_C 	C 	0.1653	0.2056	0.2424	-3.795
Mof_C 	C 	0.3193	0.6467	0.6165	0.255
Mof_C 	C 	0.4508	0.1808	0.0444	-0.069
Mof_C 	C 	0.6796	0.9374	0.3328	-0.588
Mof_C 	C 	0.8722	0.0512	0.8116	3.827
Mof_C 	C 	0.3115	0.7176	0.7593	-0.338
Mof_C 	C 	0.6653	0.2056	0.9632	-3.783
Mof_C 	C 	0.9528	0.8112	0.5805	-0.335
Mof_C 	C 	0.9527	0.1835	0.6784	-0.078
Mof_C 	C 	0.1016	0.4371	0.3581	0.198
Mof_C 	C 	0.3579	0.3792	0.5934	-2.426
Mof_C 	C 	0.9059	0.2571	0.2765	0.379
Mof_C 	C 	0.4526	0.5724	0.6821	-0.131
Mof_C 	C 	0.1605	0.8784	0.6631	0.074
Mof_C 	C 	0.3395	0.7847	0.6631	0.077
Mof_C 	C 	-2.49013e-32	0.819	0.606	0.36
Mof_C 	C 	0.1807	0.6467	0.0302	0.13
Mof_C 	C 	0.3735	0.6483	0.6005	0.206
Mof_C 	C 	-1.08943e-32	0.7489	0.1815	0.03
Mof_C 	C 	0.205	0.8554	0.662	-0.142
Mof_C 	C 	0.3984	0.4371	0.079	0.331
Mof_C 	C 	0.3653	0.9882	0.3904	-0.312
Mof_C 	C 	0.3395	0.3369	0.1216	0.076
Mof_C 	C 	0.7274	0.3025	0.1391	0.037
Mof_C 	C 	0.1885	0.2407	0.2824	-0.345
Mof_C 	C 	0.8193	0.9698	0.6165	0.32
Mof_C 	C 	0.6605	0.7847	0.6631	0.077
Mof_C 	C 	0.8395	0.3369	0.2153	0.078
Mof_C 	C 	0.9528	0.7693	0.1888	-0.335
Mof_C 	C 	0.7054	0.8402	0.7319	-0.156
Mof_C 	C 	0.8579	0.4066	0.6208	-2.679
Mof_C 	C 	0.4508	0.9556	0.1364	-0.069
Mof_C 	C 	0.5	0.8304	0.6219	-0.312
Mof_C 	C 	0.133	0.9096	0.5724	-0.437
Mof_C 	C 	0.1265	0.9522	0.6005	0.194
Mof_C 	C 	0.5491	0.8872	0.8043	-0.047
Mof_C 	C 	0.1316	0.7222	0.9487	-0.153
Mof_C 	C 	0.867	0.4276	0.3372	-0.556
Mof_C 	C 	0.8653	0.9882	0.5978	-0.35
Mof_C 	C 	0.5	0.3781	0.2085	-0.312
Mof_C 	C 	0.5	0.394	0.181	0.163
Mof_C 	C 	0.3684	0.0513	0.2778	-0.149
Mof_C 	C 	0.8998	0.086	0.8029	1.392
Mof_C 	C 	0.0491	0.7982	0.6071	-0.632
Mof_C 	C 	6.22532e-33	0.8628	0.0657	0.549
Mof_C 	C 	0.133	0.4276	0.3372	-0.436
Mof_C 	C 	0.1885	0.7176	0.9583	-0.342
Mof_C 	C 	0.335	0.3126	0.5758	-2.429
Mof_C 	C 	0.3579	0.2142	0.6208	-2.426
Mof_C 	C 	0.295	0.8554	0.1934	-0.137
Mof_C 	C 	0.9526	0.5724	0.8903	0.004
Mof_C 	C 	0.8115	0.7176	0.9583	-0.359
Mof_C 	C 	0.8998	0.1971	0.2831	1.392
Mof_C 	C 	0.4102	0.6757	0.6353	0.3
Mof_C 	C 	0.1007	0.3244	0.7876	-2.244
Mof_C 	C 	0.455	0.3235	0.7825	0.095
Mof_C 	C 	0.5	0.8488	0.8269	-0.395
Mof_C 	C 	0.8684	0.0513	0.7735	-0.127
Mof_C 	C 	0.1807	0.3835	0.3533	0.198
Mof_C 	C 	0.3722	0.7604	0.8116	3.832
Mof_C 	C 	0.0474	0.1097	0.6821	-0.091
Mof_C 	C 	0.3803	0.6874	0.7783	-4.042
Mof_C 	C 	0.4509	0.9171	0.1128	-0.046
Mof_C 	C 	0.1278	0.0512	0.8116	3.82
Mof_C 	C 	0.1421	0.2142	0.5934	-2.266
Mof_C 	C 	0.0472	0.7693	0.1888	-0.517
Mof_C 	C 	0.5941	0.7235	0.7429	0.392
Mof_C 	C 	0.1197	0.2217	0.3126	-4.007
Mof_C 	C 	0.4527	0.4949	0.6784	-0.19
Mof_C 	C 	0.705	0.8066	0.662	-0.137
Mof_C 	C 	0.8941	0.9719	0.579	-0.339
Mof_C 	C 	0.9528	0.4195	0.2307	-0.336
Mof_C 	C 	0.3998	0.086	0.2831	1.429
Mof_C 	C 	0.705	0.338	0.1446	-0.137
Mof_C 	C 	0.3941	0.421	0.0281	-0.335
Mof_C 	C 	0.3579	0.4066	0.7858	-2.422
Mof_C 	C 	0.3984	0.6419	0.5629	0.245
Mof_C 	C 	0.5473	0.4949	0.6784	-0.189
Mof_C 	C 	0.1624	0.2695	0.1823	0.094
Mof_C 	C 	0.3395	0.8784	0.2153	0.077
Mof_C 	C 	0.9508	0.8636	0.0444	-0.998
Mof_C 	C 	0.8204	0.3954	0.3328	-0.647
Mof_C 	C 	0.5	0.1642	0.4852	0.06
Mof_C 	C 	0.6807	0.9698	0.3533	0.253
Mof_C 	C 	0.168	0.6867	0.9343	3.202
Mof_C 	C 	0.0472	0.4195	0.2307	-0.519
Mof_C 	C 	0.0491	0.1957	0.1128	-0.94
Mof_C 	C 	0.9509	0.7982	0.6071	-0.406
Mof_C 	C 	0.0941	0.2571	0.2765	0.392
Mof_C 	C 	0.3653	0.4022	0.0118	-0.337
Mof_C 	C 	0.1347	0.6096	0.0118	-0.338
Mof_C 	C 	0.665	0.2632	0.6874	-2.368
Mof_C 	C 	0.3193	0.9698	0.3533	0.255
Mof_C 	C 	0.6016	0.4371	0.079	0.269
Mof_C 	C 	0.1605	0.7847	0.1216	0.073
Mof_C 	C 	0.165	0.4242	0.6874	-2.273
Mof_C 	C 	0.8347	0.0368	0.7944	-3.83
Mof_C 	C 	0.4251	0.338	0.6033	-0.289
Mof_C 	C 	0.7946	0.8402	0.1083	-0.165
Mof_C 	C 	0.1316	0.0513	0.7735	-0.158
Mof_C 	C 	-1.55633e-33	0.394	0.213	0.36
Mof_C 	C 	0.6007	0.4632	0.7876	-2.374
Mof_C 	C 	0.8993	0.2124	0.5368	-2.705
Mof_C 	C 	0.4526	0.3179	0.8903	-0.131
Mof_C 	C 	0.367	0.9096	0.3372	-0.489
Mof_C 	C 	0.045	0.3235	0.541	0.058
Mof_C 	C 	0.6624	0.2695	0.0872	0.094
Mof_C 	C 	0.8993	0.4632	0.6756	-2.705
Mof_C 	C 	0.1421	0.3792	0.7858	-2.265
Mof_C 	C 	0.3722	0.1884	0.9488	3.81
Mof_C 	C 	0.332	0.2476	0.9343	3.244
Mof_C 	C 	0.1059	0.421	0.3929	-0.29
Mof_C 	C 	0.5	0.787	0.606	0.163
Mof_C 	C 	0.6885	0.2407	0.9583	-0.333
Mof_C 	C 	0.5491	0.3929	0.2018	-0.106
Mof_C 	C 	0.6265	0.3995	0.0478	0.244
Mof_C 	C 	0.8793	0.4222	0.6613	2.051
Mof_C 	C 	0.3941	0.9719	0.3929	-0.31
Mof_C 	C 	0.2946	0.2681	0.1083	-0.155
Mof_C 	C 	0.3722	0.0512	0.2396	3.832
Mof_C 	C 	0.335	0.4242	0.7368	-2.425
Mof_C 	C 	0.1002	0.1971	0.2831	1.421
Mof_C 	C 	0.4509	0.1957	0.0829	-0.046
Mof_C 	C 	0.8395	0.7847	0.1216	0.078
Mof_C 	C 	0.6207	0.4222	0.7609	1.782
Mof_C 	C 	-0	0.321	0.4852	-0.043
Mof_C 	C 	0.6605	0.3369	0.1216	0.076
Mof_C 	C 	-2.49013e-32	0.5533	0.8729	-0.1
Mof_C 	C 	0.795	0.8554	0.662	-0.143
Mof_C 	C 	0.5456	0.0759	0.3909	0.055
Mof_C 	C 	0.8722	0.7604	0.9488	3.767
Mof_C 	C 	0.0492	0.1808	0.1364	-1.153
Mof_C 	C 	0.633	0.9096	0.3372	-0.489
Mof_C 	C 	0.1059	0.9719	0.579	-0.29
Mof_C 	C 	0.5	0.7781	0.6405	0.318
Mof_C 	C 	0.5	0.2029	0.0657	0.166
Mof_C 	C 	0.165	0.3126	0.7368	-2.273
Mof_C 	C 	-4.27991e-33	0.8262	0.0706	0.05
Mof_C 	C 	0.5472	0.7693	0.5805	-0.116
Mof_C 	C 	0.6316	0.7222	0.7735	-0.148
Mof_C 	C 	0.6624	0.9128	0.1823	0.095
Mof_C 	C 	0.4251	0.3967	0.7347	-0.288
Mof_C 	C 	0.455	0.2175	0.541	0.095
Mof_C 	C 	0.0749	0.338	0.7347	-0.255
Mof_C 	C 	0.5	0.7489	0.5674	-0.293
Mof_C 	C 	0.3803	0.0909	0.3126	-4.043
Mof_C 	C 	0.2054	0.2681	0.1598	-0.163
Mof_C 	C 	0.1605	0.3369	0.2153	0.074
Mof_C 	C 	0.0492	0.9556	0.8192	-1.152
Mof_C 	C 	0.8376	0.2695	0.1823	0.098
Mof_C 	C 	0.4509	0.8872	0.8043	-0.046
Mof_C 	C 	0.668	0.2476	0.9343	3.213
Mof_C 	C 	-4.66899e-33	0.7781	0.1376	0.104
Mof_C 	C 	0.3793	0.2391	0.6613	1.832
Mof_C 	C 	0.6197	0.6874	0.7783	-4.043
Mof_C 	C 	0.832	0.6867	0.9343	3.212
Mof_C 	C 	0.9251	0.3967	0.662	-0.389
Mof_C 	C 	0.8993	0.3244	0.7876	-2.7
Mof_C 	C 	0.9509	0.8089	0.2018	-0.405
Mof_C 	C 	0.2726	0.8609	0.1634	0.038
Mof_C 	C 	0.3993	0.4632	0.7876	-2.426
Mof_C 	C 	0.9544	0.315	0.3909	0.118
Mof_C 	C 	0.8984	0.6419	0.079	0.324
Mof_C 	C 	0.7274	0.8609	0.1634	0.038
Mof_C 	C 	0.3115	0.2407	0.9583	-0.337
Mof_C 	C 	0.3735	0.3995	0.0478	0.217
Mof_C 	C 	0.4528	0.8112	0.2307	-0.116
Mof_C 	C 	0.6885	0.7176	0.7593	-0.336
Mof_C 	C 	0.5	0.9343	0.1372	0.166
Mof_C 	C 	0.8115	0.0417	0.7593	-0.362
Mof_C 	C 	0.2054	0.8917	0.7319	-0.163
Mof_C 	C 	0.6624	0.8177	0.7305	0.095
Mof_C 	C 	-1.24506e-32	0.9781	0.8269	0.873
Mof_C 	C 	0.835	0.2632	0.5758	-2.671
Mof_C 	C 	0.545	0.2175	0.541	0.095
Mof_C 	C 	0.5749	0.338	0.6033	-0.273
Mof_C 	C 	0.8193	0.3835	0.3533	0.32
Mof_C 	C 	0.8347	0.2056	0.2424	-3.83
Mof_C 	C 	0.3204	0.3954	0.0626	-0.685
Mof_C 	C 	0.8193	0.6467	0.0302	0.251
Mof_C 	C 	0.7054	0.2681	0.1083	-0.156
Mof_C 	C 	0.665	0.4242	0.7368	-2.364
Mof_C 	C 	0.8735	0.9522	0.6005	0.233
Mof_C 	C 	0.1653	0.7576	0.9632	-3.743
Mof_C 	C 	0.045	0.459	0.7825	0.058
Mof_C 	C 	0.5472	0.4195	0.1888	-0.116
Mof_C 	C 	0.8684	0.2265	0.2778	-0.127
Mof_C 	C 	0.3347	0.7576	0.7944	-3.833
Mof_C 	C 	0.168	0.0657	0.7524	3.253
Mof_C 	C 	0.6653	0.0368	0.2424	-3.835
Mof_C 	C 	0.0491	0.8872	0.0829	-0.936
Mof_C 	C 	0.4509	0.7982	0.1911	-0.106
Mof_C 	C 	0.4527	0.3216	0.8165	-0.189
Mof_C 	C 	0.7054	0.8917	0.1598	-0.156
Mof_C 	C 	0.5	0.8624	0.2219	0.318
Mof_C 	C 	0.8793	0.3387	0.7609	2.047
Mof_C 	C 	0.9059	0.7235	0.9806	0.377
Mof_C 	C 	0.3793	0.3387	0.5778	1.832
Mof_C 	C 	-1.8676e-32	0.8624	0.6405	0.104
Mof_C 	C 	0.0492	0.8636	0.0444	-1.149
Mof_C 	C 	0.3684	0.2265	0.9487	-0.147
Mof_C 	C 	0.6885	0.0417	0.2824	-0.336
Mof_C 	C 	0.0473	0.3216	0.5051	-0.169
Mof_C 	C 	0.5491	0.7982	0.1911	-0.106
Mof_C 	C 	0.5492	0.9556	0.1364	-0.07
Mof_C 	C 	0.367	0.4276	0.0904	-0.546
Mof_C 	C 	0.3998	0.7169	0.8029	1.429
Mof_C 	C 	0.4528	0.7693	0.5805	-0.116
Mof_C 	C 	0.9544	0.0759	0.685	0.117
Mof_C 	C 	0.8984	0.921	0.5629	0.301
Mof_C 	C 	0.2274	0.3025	0.1634	0.042
Mof_C 	C 	0.5473	0.3216	0.8165	-0.189
Mof_C 	C 	0.8204	0.6672	0.0626	-0.66
Mof_C 	C 	0.867	0.9096	0.5724	-0.556
Mof_C 	C 	0.9527	0.4949	0.8165	-0.077
Mof_C 	C 	0.955	0.459	0.7825	0.17
Mof_C 	C 	0.5	0.8944	0.1006	-0.468
Mof_C 	C 	0.0749	0.3967	0.662	-0.255
Mof_C 	C 	0.6605	0.8784	0.2153	0.077
Mof_C 	C 	0.295	0.8066	0.662	-0.137
Mof_C 	C 	0.6197	0.2217	0.9091	-3.988
Mof_C 	C 	0.5	0.8262	0.7556	0.325
Mof_C 	C 	0.6207	0.3387	0.5778	1.786
Mof_C 	C 	-1.94541e-32	0.8994	0.1056	0.346
Mof_C 	C 	0.2946	0.8917	0.1598	-0.156
Mof_C 	C 	-2.49013e-32	0.9294	0.7556	0.05
Mof_C 	C 	0.5474	0.1097	0.4276	-0.131
Mof_C 	C 	0.832	0.0657	0.7524	3.263
Mof_C 	C 	-6.22532e-33	0.1731	0.1512	0.874
Mof_C 	C 	0.6807	0.3835	0.0302	0.186
Mof_C 	C 	0.6796	0.6672	0.6046	-0.588
Mof_C 	C 	0.3376	0.2695	0.0872	0.094
Mof_C 	C 	0.3984	0.921	0.3581	0.245
Mof_C 	C 	0.8998	0.7169	0.914	1.367
Mof_C 	C 	-3.11266e-33	0.2029	0.1372	0.55
Mof_C 	C 	0.1278	0.1884	0.2396	3.82
Mof_C 	C 	0.3376	0.8177	0.7305	0.094
Mof_C 	C 	0.1002	0.086	0.8029	1.421
Mof_C 	C 	0.1007	0.4632	0.6756	-2.244
Mof_C 	C 	0.3204	0.6672	0.6046	-0.587
Mof_C 	C 	0.335	0.2632	0.6874	-2.429
Mof_C 	C 	0.3193	0.3835	0.0302	0.336
Mof_C 	C 	0.8984	0.4371	0.3581	0.301
Mof_C 	C 	0.1316	0.2265	0.2778	-0.158
Mof_C 	C 	-1.8676e-32	0.1271	0.6804	-0.101
Mof_C 	C 	0.6002	0.1971	0.914	1.406
Mof_C 	C 	0.6278	0.1884	0.9488	3.773
Mof_C 	C 	0.8793	0.2391	0.5778	2.051
Mof_C 	C 	0.8395	0.8784	0.6631	0.078
Mof_C 	C 	-1.4007e-32	0.8304	0.2085	-0.112
Mof_C 	C 	0.6278	0.0512	0.2396	3.831
Mof_C 	C 	0.867	0.6628	0.0904	-0.616
Mof_C 	C 	0.7946	0.2681	0.1598	-0.165
Mof_C 	C 	0.4544	0.6091	0.685	0.055
Mof_C 	C 	0.5	0.2444	0.0706	0.325
Mof_C 	C 	0.1347	0.9882	0.5978	-0.285
Mof_C 	C 	0.1059	0.6071	0.0281	-0.256
Mof_C 	C 	-2.17886e-32	0.3196	0.4467	-0.101
Mof_C 	C 	0.9102	0.9596	0.6353	0.284
Mof_C 	C 	0.0941	0.0194	0.7429	0.392
Mof_C 	C 	0.4102	0.3647	0.0404	0.295
Mof_C 	C 	0.8803	0.2217	0.3126	-4.042
Mof_C 	C 	0.1265	0.6483	0.0478	0.23
Mof_C 	C 	0.6059	0.6071	0.579	-0.311
Mof_C 	C 	0.1653	0.0368	0.7944	-3.796
Mof_C 	C 	0.1278	0.7604	0.9488	3.761
Mof_C 	C 	0.6197	0.0909	0.3126	-4.043
Mof_C 	C 	0.332	0.6867	0.7524	3.262
Mof_C 	C 	0.633	0.6628	0.5724	-0.49
Mof_C 	C 	0.795	0.8066	0.1446	-0.143
Mof_C 	C 	0.4102	0.9596	0.3243	0.3
Mof_C 	C 	0.4059	0.2571	0.9806	0.391
Mof_C 	C 	0.2726	0.8366	0.6975	0.038
Mof_C 	C 	0.835	0.3126	0.7368	-2.667
Mof_C 	C 	0.367	0.6628	0.5724	-0.489
Mof_C 	C 	0.1347	0.4022	0.3904	-0.285
Mof_C 	C 	0.5491	0.1957	0.0829	-0.047
Mof_C 	C 	0.6421	0.3792	0.5934	-2.371
Mof_C 	C 	-0	0.8944	0.7938	0.347
Mof_C 	C 	0.1796	0.6672	0.0626	-0.557
Mof_C 	C 	0.9526	0.3179	0.4276	0.005
Mof_C 	C 	0.1016	0.921	0.5629	0.198
Mof_C 	C 	0.8376	0.8177	0.0872	0.098
Mof_C 	C 	0.9102	0.6757	0.0404	0.27
Mof_C 	C 	-3.11266e-32	0.9343	0.7971	0.55
Mof_C 	C 	0.1197	0.0909	0.7783	-4.007
Mof_C 	C 	0.705	0.8554	0.1934	-0.136
Mof_C 	C 	0.9251	0.338	0.7347	-0.388
Mof_C 	C 	0.0456	0.315	0.3909	0.009
Mof_C 	C 	0.1197	0.6874	0.9091	-3.951
Mof_C 	C 	0.3735	0.9522	0.3517	0.206
Mof_C 	C 	0.0472	0.8112	0.5805	-0.518
Mof_C 	C 	-4.35772e-32	0.5148	0.8358	-0.043
Mof_C 	C 	0.2274	0.8366	0.1391	0.042
Mof_C 	C 	0.6207	0.2391	0.6613	1.786
Mof_C 	C 	0.1885	0.0417	0.7593	-0.345
Mof_C 	C 	0.3376	0.9128	0.1823	0.094
Mof_C 	C 	0.6002	0.7169	0.8029	1.43
Mof_C 	C 	0.5473	0.1835	0.5051	-0.189
Mof_C 	C 	0.545	0.459	0.6765	0.095
Mof_C 	C 	0.5	0.8994	0.7938	-0.469
Mof_C 	C 	0.665	0.3126	0.5758	-2.369
Mof_C 	C 	0.3347	0.2056	0.9632	-3.814
Mof_C 	C 	-4.66899e-33	0.787	0.181	0.359
Mof_C 	C 	0.133	0.6628	0.0904	-0.497
Mof_C 	C 	0.3941	0.6071	0.579	-0.31
Mof_C 	C 	0.6421	0.4066	0.7858	-2.366
Mof_C 	C 	0.6059	0.421	0.0281	-0.277
Mof_C 	C 	0.8941	0.6071	0.0281	-0.306
Mof_C 	C 	0.0749	0.2653	0.6033	-0.255
Mof_C 	C 	0.6316	0.2265	0.9487	-0.143
Mof_C 	C 	0.4509	0.8089	0.6071	-0.106
Mof_C 	C 	0.5456	0.6091	0.685	0.055
Mof_C 	C 	0.5472	0.8112	0.2307	-0.116
Mof_C 	C 	0.1421	0.4066	0.6208	-2.265
Mof_C 	C 	0.0456	0.6091	0.9241	0.009
Mof_C 	C 	0.1265	0.3995	0.3517	0.194
Mof_C 	C 	0.835	0.4242	0.6874	-2.671
Mof_C 	C 	0.4544	0.0759	0.3909	0.055
Mof_C 	C 	0.1624	0.8177	0.0872	0.094
Mof_C 	C 	0.9509	0.8872	0.0829	-0.811
Mof_C 	C 	0.7946	0.8917	0.7319	-0.165
Mof_C 	C 	0.0898	0.6757	0.0404	0.284
Mof_C 	C 	0.165	0.2632	0.5758	-2.274
Mof_C 	C 	0.8941	0.421	0.3929	-0.34
Mof_C 	C 	0.0941	0.7235	0.9806	0.39
Mof_C 	C 	0.9508	0.9556	0.8192	-1.001
Mof_C 	C 	0.9251	0.2653	0.6033	-0.389
Mof_C 	C 	0.9527	0.3216	0.5051	-0.077
Mof_C 	C 	0.9508	0.1808	0.1364	-1.002
Mof_C 	C 	0.0473	0.4949	0.8165	-0.169
Mof_C 	C 	0.6059	0.9719	0.3929	-0.311
Mof_C 	C 	0.3993	0.2124	0.6756	-2.43
Mof_C 	C 	0.668	0.6867	0.7524	3.262
Mof_C 	C 	0.1624	0.9128	0.7305	0.094
Mof_C 	C 	0.5	0.8628	0.7971	0.166
Mof_C 	C 	0.168	0.2476	0.3133	3.253
Mof_C 	C 	-3.89082e-33	0.2062	0.1006	0.351
Mof_C 	C 	0.5	0.7915	0.1696	-0.312
Mof_C 	C 	0.668	0.0657	0.3133	3.262
Mof_C 	C 	0.6347	0.9882	0.3904	-0.313
Mof_C 	C 	0.5749	0.3967	0.7347	-0.271
Mof_C 	C 	0.3684	0.7222	0.7735	-0.149
Mof_C 	C 	0.5898	0.3647	0.0404	0.286
Mof_C 	C 	0.5	0.3196	0.8729	0.024
Mof_C 	C 	0.6007	0.3244	0.5368	-2.379
Mof_C 	C 	0.205	0.8066	0.1446	-0.142
Mof_C 	C 	0.795	0.338	0.1934	-0.143
Mof_C 	C 	-6.22532e-33	0.4326	0.2511	0.03
Mof_C 	C 	-7.78165e-33	0.3595	0.2219	0.104
Mof_C 	C 	0.955	0.2175	0.6765	0.17
Mof_C 	C 	0.3803	0.2217	0.9091	-4.022
Mof_C 	C 	0.8579	0.2142	0.5934	-2.679
Mof_C 	C 	0.2054	0.8402	0.1083	-0.163
Mof_C 	C 	0.0456	0.0759	0.685	0.009
Mof_C 	C 	0.5749	0.2653	0.662	-0.273
Mof_C 	C 	0.955	0.3235	0.541	0.17
Mof_C 	C 	0.0898	0.3647	0.3243	0.297
Mof_C 	C 	0.6007	0.2124	0.6756	-2.379
Mof_C 	C 	0.4528	0.4195	0.1888	-0.116
Mof_C 	C 	0.8722	0.1884	0.2396	3.827
Mof_C 	C 	0.6016	0.6419	0.5629	0.244
Mof_C 	C 	0.5	0.9294	0.1738	0.325
Mof_C 	C 	0.8347	0.7576	0.9632	-3.777
Mof_C 	C 	0.7274	0.8366	0.6975	0.038
Mof_C 	C 	0.7726	0.8609	0.6975	0.043
Mof_N 	N 	-2.49013e-32	0.4409	0.7657	-0.274
Mof_N 	N 	0.5	0.3141	0.9415	-0.174
Mof_N 	N 	0.8607	0.7908	0.0935	-0.196
Mof_N 	N 	0.3607	0.7908	0.6973	-0.187
Mof_N 	N 	0.1393	0.7908	0.0935	-0.189
Mof_N 	N 	0.6393	0.7908	0.6973	-0.187
Mof_N 	N 	0.5	0.3248	0.7657	-0.218
Mof_N 	N 	0.1393	0.3027	0.2092	-0.189
Mof_N 	N 	0.5	0.6274	0.6859	-0.174
Mof_N 	N 	0.3607	0.3027	0.0935	-0.187
Mof_N 	N 	0.8607	0.9065	0.6973	-0.196
Mof_N 	N 	-6.22532e-33	0.2343	0.6752	-0.274
Mof_N 	N 	-9.33798e-33	0.3248	0.5591	-0.274
Mof_N 	N 	0.5	0.0585	0.3726	-0.174
Mof_N 	N 	0.6393	0.9065	0.2092	-0.187
Mof_N 	N 	-1.8676e-32	0.6274	0.9415	-0.225
Mof_N 	N 	0.6393	0.3027	0.0935	-0.187
Mof_N 	N 	0.8607	0.3027	0.2092	-0.196
Mof_N 	N 	0.3607	0.9065	0.2092	-0.187
Mof_N 	N 	0.5	0.2343	0.5591	-0.218
Mof_N 	N 	0.5	0.4409	0.6752	-0.218
Mof_N 	N 	-1.55633e-32	0.3141	0.3726	-0.225
Mof_N 	N 	-6.22532e-33	0.0585	0.6859	-0.225
Mof_N 	N 	0.1393	0.9065	0.6973	-0.189
Mof_O 	O 	0.4559	0.8784	0.2244	-0.387
Mof_O 	O 	0.5571	0.305	0.5933	-0.255
Mof_O 	O 	0.4424	0.3708	0.7413	-0.242
Mof_O 	O 	0.5576	0.3708	0.7413	-0.246
Mof_O 	O 	0.9553	0.2589	0.1862	-0.243
Mof_O 	O 	0.0447	0.9273	0.7411	-0.319
Mof_O 	O 	0.5	0.7352	0.6929	-0.569
Mof_O 	O 	0.9553	0.9273	0.7411	-0.243
Mof_O 	O 	0.4441	0.2689	0.9682	-0.415
Mof_O 	O 	0.5552	0.353	0.0146	-0.382
Mof_O 	O 	0.6018	0.9841	0.2506	-0.413
Mof_O 	O 	0.3982	0.7494	0.7335	-0.413
Mof_O 	O 	0.9559	0.7756	0.1216	-0.266
Mof_O 	O 	0.8982	0.7494	0.0159	-0.4
Mof_O 	O 	0.9448	0.6616	0.0146	-0.314
Mof_O 	O 	0.3982	0.9841	0.2506	-0.413
Mof_O 	O 	0.4448	0.6616	0.647	-0.386
Mof_O 	O 	0.0447	0.2589	0.1862	-0.319
Mof_O 	O 	0.0576	0.3708	0.6295	-0.249
Mof_O 	O 	0.6018	0.7494	0.7335	-0.413
Mof_O 	O 	0.9429	0.305	0.7117	-0.162
Mof_O 	O 	0.5447	0.9273	0.1862	-0.387
Mof_O 	O 	0.6018	0.2665	0.0159	-0.413
Mof_O 	O 	0.5576	0.3705	0.6292	-0.245
Mof_O 	O 	-2.49013e-32	0.9577	0.6929	-0.611
Mof_O 	O 	0.0441	0.7756	0.1216	-0.345
Mof_O 	O 	0.0552	0.9854	0.647	-0.389
Mof_O 	O 	0.0552	0.353	0.3384	-0.389
Mof_O 	O 	0.4559	0.7756	0.654	-0.388
Mof_O 	O 	0.0571	0.4067	0.695	-0.257
Mof_O 	O 	0.4559	0.346	0.1216	-0.387
Mof_O 	O 	0.0441	0.8784	0.654	-0.345
Mof_O 	O 	0.4424	0.2587	0.6295	-0.241
Mof_O 	O 	0.5571	0.2883	0.695	-0.255
Mof_O 	O 	0.9559	0.8784	0.654	-0.265
Mof_O 	O 	0.9429	0.2883	0.5933	-0.161
Mof_O 	O 	0.9448	0.9854	0.647	-0.317
Mof_O 	O 	0.3982	0.2665	0.0159	-0.413
Mof_O 	O 	0.1018	0.9841	0.7335	-0.41
Mof_O 	O 	0.0559	0.2689	0.3007	-0.415
Mof_O 	O 	0.4429	0.4067	0.7117	-0.251
Mof_O 	O 	0.0441	0.346	0.2244	-0.345
Mof_O 	O 	0.4429	0.2883	0.695	-0.251
Mof_O 	O 	0.9424	0.2587	0.6292	-0.152
Mof_O 	O 	0.5	0.9577	0.2648	-0.569
Mof_O 	O 	0.5992	0.7126	0.6496	-0.373
Mof_O 	O 	0.8982	0.9841	0.7335	-0.4
Mof_O 	O 	0.5559	0.0318	0.3007	-0.415
Mof_O 	O 	0.9429	0.4067	0.695	-0.161
Mof_O 	O 	0.5559	0.2689	0.9682	-0.415
Mof_O 	O 	-7.78165e-33	0.3071	0.2648	-0.611
Mof_O 	O 	0.1018	0.7494	0.0159	-0.41
Mof_O 	O 	0.4553	0.9273	0.1862	-0.387
Mof_O 	O 	0.0992	0.3504	0.2874	-0.372
Mof_O 	O 	0.0559	0.6993	0.9682	-0.415
Mof_O 	O 	0.0571	0.2883	0.5933	-0.257
Mof_O 	O 	0.4429	0.305	0.5933	-0.251
Mof_O 	O 	0.9559	0.346	0.2244	-0.265
Mof_O 	O 	0.5552	0.6616	0.647	-0.386
Mof_O 	O 	0.0559	0.0318	0.7311	-0.415
Mof_O 	O 	0.4008	0.937	0.2874	-0.373
Mof_O 	O 	0.5559	0.6993	0.7311	-0.415
Mof_O 	O 	0.4441	0.0318	0.3007	-0.415
Mof_O 	O 	-6.22532e-33	0.33333	0.66666	-0.507
Mof_O 	O 	0.4008	0.7126	0.6496	-0.373
Mof_O 	O 	0.9008	0.7126	0.063	-0.358
Mof_O 	O 	0.4553	0.8138	0.7411	-0.387
Mof_O 	O 	0.9441	0.0318	0.7311	-0.345
Mof_O 	O 	0.5	0.3071	0.0423	-0.569
Mof_O 	O 	0.9441	0.6993	0.9682	-0.344
Mof_O 	O 	0.9424	0.3705	0.7413	-0.153
Mof_O 	O 	0.5441	0.8784	0.2244	-0.388
Mof_O 	O 	0.5447	0.8138	0.7411	-0.387
Mof_O 	O 	0.1018	0.2665	0.2506	-0.41
Mof_O 	O 	0.5992	0.3504	0.063	-0.371
Mof_O 	O 	0.5	0.33333	0.66666	-0.515
Mof_O 	O 	0.5441	0.346	0.1216	-0.388
Mof_O 	O 	0.4424	0.3705	0.6292	-0.241
Mof_O 	O 	0.0576	0.3705	0.7413	-0.248
Mof_O 	O 	0.4008	0.3504	0.063	-0.372
Mof_O 	O 	0.4553	0.2589	0.0727	-0.387
Mof_O 	O 	0.9424	0.3708	0.6295	-0.152
Mof_O 	O 	0.0552	0.6616	0.0146	-0.386
Mof_O 	O 	0.9448	0.353	0.3384	-0.317
Mof_O 	O 	0.9553	0.8138	0.0727	-0.243
Mof_O 	O 	0.4448	0.9854	0.3384	-0.386
Mof_O 	O 	0.5441	0.7756	0.654	-0.388
Mof_O 	O 	0.9008	0.937	0.6496	-0.36
Mof_O 	O 	0.5571	0.4067	0.7117	-0.256
Mof_O 	O 	0.5576	0.2587	0.6295	-0.245
Mof_O 	O 	0.0992	0.7126	0.063	-0.37
Mof_O 	O 	0.4448	0.353	0.0146	-0.385
Mof_O 	O 	0.9008	0.3504	0.2874	-0.36
Mof_O 	O 	0.5447	0.2589	0.0727	-0.387
Mof_O 	O 	-8.94889e-33	0.7352	0.0423	-0.61
Mof_O 	O 	0.8982	0.2665	0.2506	-0.4
Mof_O 	O 	0.0992	0.937	0.6496	-0.372
Mof_O 	O 	0.9441	0.2689	0.3007	-0.344
Mof_O 	O 	0.0571	0.305	0.7117	-0.257
Mof_O 	O 	0.5992	0.937	0.2874	-0.373
Mof_O 	O 	0.5552	0.9854	0.3384	-0.386
Mof_O 	O 	0.0447	0.8138	0.0727	-0.319
Mof_O 	O 	0.4441	0.6993	0.7311	-0.415
Mof_O 	O 	0.0576	0.2587	0.6292	-0.248
Mof_Fe	Fe	0.5	0.31434	0.31026	1.031
Mof_Fe	Fe	0.06611	0.23947	0.93399	0.977
Mof_Fe	Fe	0.93389	0.69452	0.76053	1.058
Mof_Fe	Fe	0.93389	0.23947	0.93399	1.056
Mof_Fe	Fe	0.5	0.99592	0.68566	1.031
Mof_Fe	Fe	0.5	0.68974	0.00408	1.03
Mof_Fe	Fe	0.56611	0.06601	0.76053	1.012
Mof_Fe	Fe	0.56611	0.23947	0.30548	1.012
Mof_Fe	Fe	5.83624e-34	0.31434	0.00408	0.906
Mof_Fe	Fe	0.43389	0.06601	0.76053	1.012
Mof_Fe	Fe	-1.24506e-32	0.68974	0.68566	0.906
Mof_Fe	Fe	0.06611	0.06601	0.30548	0.977
Mof_Fe	Fe	0.93389	0.06601	0.30548	1.057
Mof_Fe	Fe	-2.49013e-32	0.71299	0.32936	0.758
Mof_Fe	Fe	0.5	0.71299	0.38363	0.891
Mof_Fe	Fe	0.5	0.67064	0.28701	0.891
Mof_Fe	Fe	0.43389	0.69452	0.93399	1.011
Mof_Fe	Fe	0.43389	0.23947	0.30548	1.012
Mof_Fe	Fe	0.5	0.61637	0.32936	0.891
Mof_Fe	Fe	-2.49013e-32	0.99592	0.31026	0.907
Mof_Fe	Fe	-1.24506e-32	0.67064	0.38363	0.758
Mof_Fe	Fe	0.06611	0.69452	0.76053	0.977
Mof_Fe	Fe	0.56611	0.69452	0.93399	1.011
Mof_Fe	Fe	-1.08943e-32	0.61637	0.28701	0.758
Mof_H 	H 	0.4691	0.2665	0.4338	0.056
Mof_H 	H 	0.031	0.1581	0.7966	-0.104
Mof_H 	H 	0.9539	0.559	0.7747	0.119
Mof_H 	H 	0.6467	0.9249	0.6631	-1.718
Mof_H 	H 	0.2806	0.1989	0.3623	0.053
Mof_H 	H 	0.5497	0.1659	0.3686	0.006
Mof_H 	H 	0.9975	0.8198	0.9224	-0.243
Mof_H 	H 	0.15	0.6212	0.3907	0.648
Mof_H 	H 	0.8229	0.3632	0.9978	-0.102
Mof_H 	H 	0.4986	0.8533	0.9819	0.059
Mof_H 	H 	0.9227	0.6763	0.4467	-0.088
Mof_H 	H 	0.3167	0.6757	0.3991	0.675
Mof_H 	H 	0.1506	0.7174	0.4302	0.652
Mof_H 	H 	0.148	0.1031	0.414	0.115
Mof_H 	H 	0.0321	0.1583	0.7956	-0.079
Mof_H 	H 	0.8102	0.7537	0.4446	0.756
Mof_H 	H 	0.3023	0.9841	0.7393	-0.147
Mof_H 	H 	0.9691	0.2665	0.8327	-0.072
Mof_H 	H 	0.1854	0.9859	0.2246	1.407
Mof_H 	H 	0.6527	0.9921	0.6133	0.123
Mof_H 	H 	0.9325	0.559	0.6288	-0.111
Mof_H 	H 	0.35	0.6212	0.2305	0.694
Mof_H 	H 	0.2974	0.0663	0.6494	0.183
Mof_H 	H 	0.9197	0.1879	0.3941	0.186
Mof_H 	H 	0.0011	0.1643	0.7646	0.226
Mof_H 	H 	0.5773	0.7704	0.4467	-0.066
Mof_H 	H 	0.3249	0.0876	0.6913	0.193
Mof_H 	H 	0.0025	0.0776	0.8974	0.175
Mof_H 	H 	0.8995	0.0017	0.4046	0.087
Mof_H 	H 	0.3471	0.8303	0.0701	-1.071
Mof_H 	H 	0.5472	0.2589	0.4299	-0.015
Mof_H 	H 	0.4208	0.307	0.2106	0.876
Mof_H 	H 	0.8721	0.5216	0.3285	0.786
Mof_H 	H 	0.5925	0.7722	0.2966	0.71
Mof_H 	H 	0.0308	0.8226	0.8323	-0.444
Mof_H 	H 	0.9697	0.778	0.8987	-0.18
Mof_H 	H 	0.5014	0.0181	0.8714	0.059
Mof_H 	H 	0.3995	0.5954	0.9983	0.078
Mof_H 	H 	0.5486	0.831	0.9218	0.028
Mof_H 	H 	0.0767	0.922	0.1827	-0.322
Mof_H 	H 	0.6245	0.7533	0.0899	1.908
Mof_H 	H 	0.2194	0.1989	0.8366	0.052
Mof_H 	H 	0.1898	0.6909	0.2463	0.64
Mof_H 	H 	0.4196	0.8005	0.9294	0.053
Mof_H 	H 	0.1906	0.3102	0.0442	-0.123
Mof_H 	H 	0.6485	0.7545	0.9329	-0.003
Mof_H 	H 	0.85	0.6212	0.3907	0.767
Mof_H 	H 	0.3563	0.7976	0.1103	1.303
Mof_H 	H 	0.5988	0.102	0.6632	0.028
Mof_H 	H 	0.4208	0.9036	0.693	0.876
Mof_H 	H 	0.8546	0.1261	0.3607	-0.009
Mof_H 	H 	0.0773	0.5533	0.2296	-0.053
Mof_H 	H 	0.0805	0.1374	0.9417	-0.029
Mof_H 	H 	0.4275	0.3936	0.4338	0.114
Mof_H 	H 	0.4081	0.9417	0.7637	-1.276
Mof_H 	H 	0.8683	0.5594	0.5903	0.102
Mof_H 	H 	0.5491	0.1588	0.1767	-0.02
Mof_H 	H 	0.6897	0.9426	0.7542	1.31
Mof_H 	H 	0.9539	0.2253	0.7843	0.119
Mof_H 	H 	0.6485	0.0671	0.8216	-0.004
Mof_H 	H 	0.3755	0.7533	0.0899	1.908
Mof_H 	H 	0.6898	0.7537	0.3091	0.667
Mof_H 	H 	0.4503	0.6314	0.7973	0.006
Mof_H 	H 	0.5773	0.6763	0.2296	-0.066
Mof_H 	H 	0.5988	0.3368	0.4388	0.028
Mof_H 	H 	0.1429	0.8099	0.7804	-0.387
Mof_H 	H 	0.9169	0.9019	0.213	-0.227
Mof_H 	H 	0.7026	0.0663	0.6494	0.184
Mof_H 	H 	0.5013	0.546	0.7916	0.035
Mof_H 	H 	0.1923	0.307	0.0418	-0.559
Mof_H 	H 	0.0327	0.1193	0.2188	-0.117
Mof_H 	H 	0.1529	0.9299	0.1697	-1.094
Mof_H 	H 	0.5792	0.9036	0.693	0.876
Mof_H 	H 	0.4195	0.1374	0.1957	0.007
Mof_H 	H 	0.5803	0.6814	0.1208	0.049
Mof_H 	H 	0.6901	0.3154	0.2284	-1.003
Mof_H 	H 	0.5309	0.5662	0.8327	0.056
Mof_H 	H 	0.2194	0.6377	0.8011	0.052
Mof_H 	H 	0.4987	0.546	0.7916	0.035
Mof_H 	H 	0.9197	0.6059	0.7938	0.186
Mof_H 	H 	0.3102	0.7537	0.3091	0.688
Mof_H 	H 	0.1279	0.8069	0.4784	0.644
Mof_H 	H 	0.8099	0.3154	0.087	-0.99
Mof_H 	H 	0.1437	0.8897	0.2024	1.306
Mof_H 	H 	0.469	0.1581	0.3615	0.049
Mof_H 	H 	0.6244	0.8938	0.715	-0.457
Mof_H 	H 	0.9233	0.2607	0.078	-0.281
Mof_H 	H 	0.9325	0.0698	0.441	-0.111
Mof_H 	H 	0.5805	0.8043	0.9417	0.007
Mof_H 	H 	0.8571	0.2196	0.0295	-0.376
Mof_H 	H 	0.0919	0.2363	0.0583	-1.272
Mof_H 	H 	0.5014	0.8533	0.9819	0.059
Mof_H 	H 	0.1506	0.7128	0.2826	0.651
Mof_H 	H 	0.9498	0.1031	0.8891	0.456
Mof_H 	H 	0.3473	0.9921	0.6133	0.123
Mof_H 	H 	0.8721	0.6715	0.1931	0.784
Mof_H 	H 	0.0491	0.8233	0.8412	0.871
Mof_H 	H 	0.5502	0.1031	0.214	-0.023
Mof_H 	H 	0.6485	0.1784	0.2455	-0.004
Mof_H 	H 	0.8099	0.913	0.2284	-1.004
Mof_H 	H 	0.8563	0.7976	0.6873	1.319
Mof_H 	H 	0.0988	0.3368	0.898	0.022
Mof_H 	H 	0.4528	0.171	0.7411	-0.015
Mof_H 	H 	0.1751	0.3087	0.9124	0.214
Mof_H 	H 	0.1854	0.2387	0.0141	1.399
Mof_H 	H 	0.7806	0.6377	0.8011	0.054
Mof_H 	H 	0.5675	0.559	0.9302	-0.115
Mof_H 	H 	0.7039	0.3705	0.4051	-0.079
Mof_H 	H 	0.4197	0.4394	0.3186	0.049
Mof_H 	H 	0.6244	0.285	0.1788	-0.457
Mof_H 	H 	0.4691	0.1673	0.7335	0.056
Mof_H 	H 	0.9989	0.6003	0.8357	-0.17
Mof_H 	H 	0.8494	0.5698	0.2872	0.766
Mof_H 	H 	0.0502	0.786	0.8969	0.553
Mof_H 	H 	0.6956	0.6295	0.9563	0.161
Mof_H 	H 	0.5309	0.1673	0.7335	0.056
Mof_H 	H 	0.3471	0.9299	0.7602	-1.088
Mof_H 	H 	0.65	0.7695	0.3907	0.676
Mof_H 	H 	0.3515	0.7545	0.9329	-0.004
Mof_H 	H 	0.3229	0.0022	0.6368	-0.092
Mof_H 	H 	0.6454	0.2346	0.3607	-0.002
Mof_H 	H 	0.8102	0.6909	0.2463	0.755
Mof_H 	H 	0.1977	0.7552	0.7393	-0.141
Mof_H 	H 	0.5472	0.5701	0.829	-0.015
Mof_H 	H 	0.4206	0.1848	0.7806	0.057
Mof_H 	H 	0.8999	0.0004	0.4025	0.123
Mof_H 	H 	0.031	0.2034	0.3615	-0.104
Mof_H 	H 	0.4502	0.0432	0.8877	0.031
Mof_H 	H 	0.9678	0.5654	0.7343	-0.038
Mof_H 	H 	0.4989	0.1643	0.3997	0.049
Mof_H 	H 	0.6923	0.9582	0.693	-0.564
Mof_H 	H 	0.1897	0.8116	0.7542	1.296
Mof_H 	H 	0.078	0.3783	0.0646	0.033
Mof_H 	H 	0.1467	0.3369	0.0751	-1.701
Mof_H 	H 	0.6001	0.5975	0.9996	0.109
Mof_H 	H 	0.2878	0.2823	0.2211	0.098
Mof_H 	H 	0.8533	0.9249	0.2618	-1.719
Mof_H 	H 	0.65	0.6212	0.2305	0.675
Mof_H 	H 	0.1437	0.3127	0.1103	1.299
Mof_H 	H 	0.9208	0.7894	0.693	0.88
Mof_H 	H 	0.5013	0.2084	0.7544	0.035
Mof_H 	H 	0.1771	0.6346	0.6368	-0.07
Mof_H 	H 	0.6005	0.4029	0.4046	0.075
Mof_H 	H 	0.4037	0.333	0.4357	0.024
Mof_H 	H 	0.875	0.0847	0.4591	-0.098
Mof_H 	H 	0.0461	0.2253	0.7843	0.123
Mof_H 	H 	0.8146	0.2387	0.0141	1.399
Mof_H 	H 	0.5323	0.01	0.834	0.075
Mof_H 	H 	0.6363	0.2181	0.193	0.195
Mof_H 	H 	0.6956	0.0437	0.6732	0.041
Mof_H 	H 	0.6901	0.7716	0.087	-0.988
Mof_H 	H 	0.3428	0.094	0.6454	0.14
Mof_H 	H 	0.0472	0.2589	0.829	0.519
Mof_H 	H 	0.8167	0.6009	0.3243	0.743
Mof_H 	H 	0.0327	0.0995	0.8807	-0.116
Mof_H 	H 	0.9075	0.7722	0.4756	0.816
Mof_H 	H 	0.0303	0.1207	0.222	-0.25
Mof_H 	H 	0.9502	0.8445	0.8877	0.319
Mof_H 	H 	0.922	0.3783	0.0646	0.008
Mof_H 	H 	0.8041	0.6302	0.6729	0.074
Mof_H 	H 	0.469	0.6385	0.7966	0.049
Mof_H 	H 	0.0323	0.01	0.176	-0.304
Mof_H 	H 	0.8571	0.8099	0.7804	-0.382
Mof_H 	H 	0.0794	0.1848	0.4042	-0.019
Mof_H 	H 	0.6906	0.9558	0.6898	-0.126
Mof_H 	H 	0.125	0.0847	0.4591	-0.074
Mof_H 	H 	0.7798	0.7564	0.8583	0.061
Mof_H 	H 	0.1279	0.5216	0.3285	0.644
Mof_H 	H 	0.8044	0.0437	0.3705	0.038
Mof_H 	H 	0.6906	0.734	0.0442	-0.124
Mof_H 	H 	0.8999	0.5975	0.5979	0.123
Mof_H 	H 	0.0794	0.2194	0.8152	-0.019
Mof_H 	H 	0.3756	0.285	0.1788	-0.457
Mof_H 	H 	0.3255	0.6219	0.4207	0.683
Mof_H 	H 	0.1745	0.5793	0.3781	0.635
Mof_H 	H 	0.8249	0.0876	0.3963	0.21
Mof_H 	H 	0.1005	0.5954	0.5971	0.066
Mof_H 	H 	0.0804	0.8005	0.8711	0.548
Mof_H 	H 	0.5794	0.1848	0.7806	0.056
Mof_H 	H 	0.4677	0.166	0.176	0.075
Mof_H 	H 	0.4197	0.6814	0.1208	0.049
Mof_H 	H 	0.7974	0.0663	0.4169	0.202
Mof_H 	H 	0.8563	0.8897	0.2024	1.319
Mof_H 	H 	0.5303	0.1207	0.8987	0.108
Mof_H 	H 	0.0013	0.2084	0.454	0.195
Mof_H 	H 	0.0925	0.7034	0.2278	0.658
Mof_H 	H 	0.8755	0.9101	0.2467	1.935
Mof_H 	H 	0.3428	0.5514	0.906	0.159
Mof_H 	H 	0.9692	0.8226	0.8323	-0.363
Mof_H 	H 	0.5011	0.6003	0.7646	0.049
Mof_H 	H 	0.1572	0.3546	0.906	0.145
Mof_H 	H 	0.0919	0.822	0.7637	-1.279
Mof_H 	H 	0.3563	0.8897	0.6873	1.321
Mof_H 	H 	0.5461	0.2253	0.441	0.031
Mof_H 	H 	0.8637	0.807	0.7819	0.193
Mof_H 	H 	0.1317	0.0309	0.4406	0.079
Mof_H 	H 	0.1527	0.6212	0.6133	0.11
Mof_H 	H 	0.3437	0.0182	0.593	0.082
Mof_H 	H 	0.8437	0.407	0.9818	0.112
Mof_H 	H 	0.0688	0.5379	0.3389	0.636
Mof_H 	H 	0.3756	0.8212	0.1062	-0.449
Mof_H 	H 	0.352	0.3109	0.414	0.134
Mof_H 	H 	0.4528	0.2589	0.4299	-0.015
Mof_H 	H 	0.6563	0.5748	0.9818	0.101
Mof_H 	H 	0.5025	0.0776	0.1802	0.075
Mof_H 	H 	0.0675	0.559	0.6288	-0.104
Mof_H 	H 	0.6833	0.7234	0.3243	0.653
Mof_H 	H 	0.9037	0.333	0.8973	0.029
Mof_H 	H 	0.5725	0.3936	0.4338	0.115
Mof_H 	H 	0.5803	0.1879	0.7938	0.01
Mof_H 	H 	0.5502	0.1109	0.8969	-0.023
Mof_H 	H 	0.5491	0.0179	0.8412	-0.02
Mof_H 	H 	0.5308	0.1677	0.1774	0.079
Mof_H 	H 	0.3103	0.9426	0.7542	1.309
Mof_H 	H 	0.3249	0.3087	0.3963	0.193
Mof_H 	H 	0.9987	0.2084	0.454	-0.201
Mof_H 	H 	0.9509	0.2284	0.4151	0.153
Mof_H 	H 	0.4503	0.2027	0.8341	0.006
Mof_H 	H 	0.9691	0.1673	0.4338	-0.072
Mof_H 	H 	0.625	0.3744	0.4591	-0.084
Mof_H 	H 	0.4325	0.559	0.9302	-0.115
Mof_H 	H 	0.0675	0.3712	0.9302	-0.137
Mof_H 	H 	0.4195	0.0583	0.8626	0.007
Mof_H 	H 	0.1485	0.7545	0.8216	-0.02
Mof_H 	H 	0.7026	0.5831	0.9337	0.185
Mof_H 	H 	0.4986	0.1286	0.1467	0.059
Mof_H 	H 	0.0805	0.0583	0.1957	-0.029
Mof_H 	H 	0.5308	0.8226	0.9903	0.079
Mof_H 	H 	0.0486	0.0782	0.169	0.242
Mof_H 	H 	0.0497	0.2027	0.3686	0.355
Mof_H 	H 	0.3563	0.3127	0.2024	1.321
Mof_H 	H 	0.8637	0.2181	0.0251	0.191
Mof_H 	H 	0.9514	0.831	0.9092	0.263
Mof_H 	H 	0.5322	0.2657	0.4346	0.05
Mof_H 	H 	0.6245	0.3366	0.2467	1.935
Mof_H 	H 	0.4169	0.3111	0.213	-0.245
Mof_H 	H 	0.0725	0.0402	0.4338	0.093
Mof_H 	H 	0.3255	0.7988	0.3781	0.682
Mof_H 	H 	0.8756	0.8938	0.1788	-0.446
Mof_H 	H 	0.3255	0.5793	0.2012	0.682
Mof_H 	H 	0.1745	0.7988	0.4207	0.635
Mof_H 	H 	0.5963	0.1027	0.667	0.024
Mof_H 	H 	0.4975	0.8198	0.8974	0.075
Mof_H 	H 	0.6751	0.0876	0.6913	0.194
Mof_H 	H 	0.0491	0.2284	0.4151	0.179
Mof_H 	H 	0.7878	0.9388	0.2211	0.105
Mof_H 	H 	0.7961	0.0346	0.4051	-0.101
Mof_H 	H 	0.3721	0.6715	0.4784	0.703
Mof_H 	H 	0.3041	0.0427	0.6729	0.074
Mof_H 	H 	0.0014	0.0181	0.1467	0.084
Mof_H 	H 	0.6854	0.7754	0.0141	1.404
Mof_H 	H 	0.8428	0.3546	0.906	0.18
Mof_H 	H 	0.031	0.6385	0.8419	-0.104
Mof_H 	H 	0.4678	0.2657	0.4346	0.05
Mof_H 	H 	0.5498	0.1123	0.1555	0.032
Mof_H 	H 	0.078	0.6863	0.6217	0.033
Mof_H 	H 	0.6467	0.3369	0.2618	-1.718
Mof_H 	H 	0.4987	0.2084	0.7544	0.035
Mof_H 	H 	0.9975	0.1026	0.1802	-0.242
Mof_H 	H 	0.0472	0.171	0.4299	0.52
Mof_H 	H 	0.1959	0.0427	0.3698	0.074
Mof_H 	H 	0.3999	0.4021	0.4025	0.108
Mof_H 	H 	0.8841	0.8055	0.4102	0.798
Mof_H 	H 	0.15	0.7695	0.3788	0.648
Mof_H 	H 	0.1159	0.8055	0.4102	0.661
Mof_H 	H 	0.4227	0.7704	0.4467	-0.067
Mof_H 	H 	0.5688	0.6611	0.4621	0.696
Mof_H 	H 	0.3473	0.3867	0.3788	0.123
Mof_H 	H 	0.4312	0.801	0.3389	0.711
Mof_H 	H 	0.7974	0.5831	0.6494	0.202
Mof_H 	H 	0.5919	0.822	0.0583	-1.256
Mof_H 	H 	0.6429	0.2196	0.1901	-0.383
Mof_H 	H 	0.4075	0.5244	0.2278	0.726
Mof_H 	H 	0.1527	0.3867	0.0079	0.123
Mof_H 	H 	0.2039	0.0346	0.4051	-0.062
Mof_H 	H 	0.9509	0.5849	0.8133	0.153
Mof_H 	H 	0.6745	0.6219	0.4207	0.664
Mof_H 	H 	0.4679	0.6373	0.7956	0.046
Mof_H 	H 	0.0309	0.1673	0.4338	-0.224
Mof_H 	H 	0.6977	0.9841	0.7393	-0.148
Mof_H 	H 	0.8146	0.7754	0.7613	1.419
Mof_H 	H 	0.5472	0.171	0.7411	-0.015
Mof_H 	H 	0.4037	0.5643	0.8973	0.028
Mof_H 	H 	0.1959	0.6302	0.6729	0.074
Mof_H 	H 	0.2806	0.6377	0.8366	0.053
Mof_H 	H 	0.352	0.586	0.8969	0.154
Mof_H 	H 	0.4196	0.0706	0.8711	0.052
Mof_H 	H 	0.6833	0.6009	0.2766	0.652
Mof_H 	H 	0.6159	0.6047	0.4102	0.699
Mof_H 	H 	0.4691	0.5662	0.8327	0.056
Mof_H 	H 	0.8094	0.3102	0.0442	-0.119
Mof_H 	H 	0.0963	0.5643	0.667	0.024
Mof_H 	H 	0.0773	0.6763	0.4467	-0.053
Mof_H 	H 	0.3637	0.9749	0.7819	0.194
Mof_H 	H 	0.9196	0.8005	0.8711	0.51
Mof_H 	H 	0.148	0.3109	0.8969	0.131
Mof_H 	H 	0.2026	0.5831	0.6494	0.169
Mof_H 	H 	0.1898	0.5554	0.3091	0.641
Mof_H 	H 	0.6956	0.3268	0.3705	0.041
Mof_H 	H 	0.8995	0.5954	0.5971	0.087
Mof_H 	H 	0.0491	0.5849	0.8133	0.179
Mof_H 	H 	0.1751	0.0876	0.3963	0.181
Mof_H 	H 	0.5675	0.3712	0.441	-0.107
Mof_H 	H 	0.5327	0.0995	0.2188	0.089
Mof_H 	H 	0.3683	0.0309	0.5903	0.089
Mof_H 	H 	0.8533	0.3369	0.0751	-1.694
Mof_H 	H 	0.5688	0.801	0.3389	0.696
Mof_H 	H 	0.6572	0.3546	0.4486	0.141
Mof_H 	H 	0.8229	0.6346	0.6368	-0.117
Mof_H 	H 	0.4227	0.6763	0.2296	-0.067
Mof_H 	H 	0.9275	0.0402	0.4338	0.14
Mof_H 	H 	0.969	0.1581	0.7966	-0.012
Mof_H 	H 	0.078	0.9354	0.3137	0.033
Mof_H 	H 	0.5321	0.2044	0.8417	0.046
Mof_H 	H 	0.3841	0.8055	0.3953	0.715
Mof_H 	H 	0.4227	0.5533	0.3237	-0.067
Mof_H 	H 	0.1467	0.9249	0.2618	-1.71
Mof_H 	H 	0.2961	0.0346	0.6295	-0.081
Mof_H 	H 	0.3571	0.2196	0.1901	-0.383
Mof_H 	H 	0.0323	0.824	0.834	-0.305
Mof_H 	H 	0.6745	0.7988	0.3781	0.664
Mof_H 	H 	0.4987	0.2456	0.454	0.035
Mof_H 	H 	0.9678	0.2657	0.8311	-0.038
Mof_H 	H 	0.4169	0.787	0.0981	-0.241
Mof_H 	H 	0.0794	0.5958	0.7806	-0.019
Mof_H 	H 	0.4692	0.0097	0.8323	0.079
Mof_H 	H 	0.1245	0.9101	0.2467	1.915
Mof_H 	H 	0.375	0.5409	0.9153	-0.092
Mof_H 	H 	0.5491	0.5849	0.7716	0.04
Mof_H 	H 	0.1159	0.5898	0.3953	0.661
Mof_H 	H 	0.6898	0.5554	0.2463	0.666
Mof_H 	H 	0.1001	0.4021	0.9996	0.105
Mof_H 	H 	0.6244	0.8212	0.1062	-0.449
Mof_H 	H 	0.422	0.3783	0.3137	0.02
Mof_H 	H 	0.2202	0.7564	0.8583	0.058
Mof_H 	H 	0.3041	0.3271	0.3698	0.074
Mof_H 	H 	0.8249	0.3087	0.9124	0.205
Mof_H 	H 	0.4325	0.3712	0.441	-0.107
Mof_H 	H 	0.3515	0.0671	0.8216	-0.004
Mof_H 	H 	0.1897	0.9426	0.1884	1.296
Mof_H 	H 	0.0988	0.5612	0.6632	0.021
Mof_H 	H 	0.1244	0.8212	0.715	-0.46
Mof_H 	H 	0.3494	0.7128	0.4302	0.697
Mof_H 	H 	0.9194	0.827	0.3207	0.028
Mof_H 	H 	0.8428	0.094	0.4486	0.161
Mof_H 	H 	0.4975	0.0776	0.1802	0.075
Mof_H 	H 	0.0321	0.6373	0.8417	-0.079
Mof_H 	H 	0.5831	0.9019	0.6889	-0.245
Mof_H 	H 	0.3471	0.2398	0.1697	-1.088
Mof_H 	H 	0.0963	0.1027	0.4357	0.024
Mof_H 	H 	0.6437	0.3127	0.2024	1.321
Mof_H 	H 	0.9227	0.5533	0.2296	-0.088
Mof_H 	H 	0.9987	0.546	0.7544	-0.201
Mof_H 	H 	0.0322	0.1689	0.4346	-0.167
Mof_H 	H 	0.1454	0.1261	0.3607	-0.01
Mof_H 	H 	0.1279	0.6715	0.1931	0.643
Mof_H 	H 	0.2122	0.9388	0.2211	0.101
Mof_H 	H 	0.0303	0.1013	0.8793	-0.25
Mof_H 	H 	0.1751	0.6037	0.6913	0.181
Mof_H 	H 	0.8041	0.0427	0.3698	0.074
Mof_H 	H 	0.0308	0.0097	0.1774	-0.444
Mof_H 	H 	0.8515	0.7545	0.8216	-0.019
Mof_H 	H 	0.9169	0.3111	0.0981	-0.222
Mof_H 	H 	0.7974	0.3506	0.9337	0.203
Mof_H 	H 	0.3023	0.2607	0.2448	-0.147
Mof_H 	H 	0.7798	0.1417	0.8981	0.061
Mof_H 	H 	0.3167	0.6009	0.2766	0.675
Mof_H 	H 	0.7878	0.2823	0.0612	0.104
Mof_H 	H 	0.9196	0.1289	0.9294	0.509
Mof_H 	H 	0.4679	0.1583	0.3627	0.045
Mof_H 	H 	0.1363	0.2181	0.0251	0.184
Mof_H 	H 	0.5794	0.2194	0.4042	0.057
Mof_H 	H 	0.9673	0.1193	0.2188	-0.057
Mof_H 	H 	0.3533	0.9249	0.6631	-1.718
Mof_H 	H 	0.4677	0.824	0.99	0.075
Mof_H 	H 	0.9498	0.1109	0.214	0.457
Mof_H 	H 	0.852	0.586	0.6891	0.154
Mof_H 	H 	0.9677	0.166	0.99	-0.233
Mof_H 	H 	0.0461	0.559	0.7747	0.123
Mof_H 	H 	0.3841	0.6047	0.4102	0.715
Mof_H 	H 	0.8094	0.734	0.6898	-0.121
Mof_H 	H 	0.2806	0.1634	0.8011	0.053
Mof_H 	H 	0.6005	0.0017	0.5971	0.075
Mof_H 	H 	0.7122	0.9388	0.7177	0.098
Mof_H 	H 	0.2798	0.7564	0.8981	0.06
Mof_H 	H 	0.4509	0.1588	0.1767	-0.021
Mof_H 	H 	0.5919	0.9417	0.7637	-1.275
Mof_H 	H 	0.0498	0.0432	0.1555	0.316
Mof_H 	H 	0.1485	0.1784	0.9329	-0.02
Mof_H 	H 	0.3683	0.5594	0.9691	0.075
Mof_H 	H 	0.6745	0.5793	0.2012	0.663
Mof_H 	H 	0.7202	0.7564	0.8981	0.061
Mof_H 	H 	0.0309	0.2665	0.8327	-0.223
Mof_H 	H 	0.3044	0.0437	0.6732	0.041
Mof_H 	H 	0.4692	0.8226	0.9903	0.079
Mof_H 	H 	0.8755	0.3366	0.0899	1.909
Mof_H 	H 	0.4196	0.1289	0.1995	0.053
Mof_H 	H 	0.8102	0.5554	0.3091	0.756
Mof_H 	H 	0.8494	0.7174	0.4302	0.766
Mof_H 	H 	0.9539	0.2157	0.441	0.119
Mof_H 	H 	0.3571	0.8099	0.0295	-0.377
Mof_H 	H 	0.5767	0.8173	0.078	-0.315
Mof_H 	H 	0.6977	0.2607	0.2448	-0.148
Mof_H 	H 	0.6437	0.8897	0.6873	1.321
Mof_H 	H 	0.8471	0.9299	0.1697	-1.092
Mof_H 	H 	0.2798	0.1019	0.8583	0.06
Mof_H 	H 	0.9081	0.822	0.7637	-1.271
Mof_H 	H 	0.9194	0.4937	0.173	0.028
Mof_H 	H 	0.8167	0.6757	0.2766	0.742
Mof_H 	H 	0.922	0.9354	0.3137	0.009
Mof_H 	H 	0.6529	0.8303	0.0701	-1.07
Mof_H 	H 	0.9227	0.7704	0.3237	-0.088
Mof_H 	H 	0.0725	0.5662	0.6064	0.093
Mof_H 	H 	0.8077	0.9582	0.2652	-0.562
Mof_H 	H 	0.4498	0.1109	0.8969	-0.023
Mof_H 	H 	0.5803	0.2062	0.3941	0.01
Mof_H 	H 	0.1745	0.6219	0.2012	0.633
Mof_H 	H 	0.5803	0.6059	0.8121	0.01
Mof_H 	H 	0.5461	0.2157	0.7747	0.031
Mof_H 	H 	0.3102	0.6909	0.4446	0.688
Mof_H 	H 	0.5025	0.8198	0.8974	0.075
Mof_H 	H 	0.8756	0.8212	0.715	-0.446
Mof_H 	H 	0.0767	0.8173	0.7393	-0.322
Mof_H 	H 	0.531	0.2034	0.8419	0.049
Mof_H 	H 	0.2878	0.9388	0.7177	0.098
Mof_H 	H 	0.1429	0.2196	0.0295	-0.385
Mof_H 	H 	0.1467	0.7382	0.6631	-1.71
Mof_H 	H 	0.9206	0.1848	0.4042	0.006
Mof_H 	H 	0.9197	0.4394	0.1208	0.016
Mof_H 	H 	0.0688	0.6611	0.199	0.635
Mof_H 	H 	0.8494	0.7128	0.2826	0.764
Mof_H 	H 	0.4539	0.559	0.7843	0.031
Mof_H 	H 	0.1771	0.3632	0.9978	-0.105
Mof_H 	H 	0.1001	0.5975	0.5979	0.097
Mof_H 	H 	0.7039	0.0346	0.6295	-0.079
Mof_H 	H 	0.7194	0.1634	0.8011	0.053
Mof_H 	H 	0.3571	0.9705	0.7804	-0.383
Mof_H 	H 	0.0806	0.6793	0.5063	0.043
Mof_H 	H 	0.6317	0.0309	0.5903	0.089
Mof_H 	H 	0.5322	0.5654	0.8311	0.05
Mof_H 	H 	0.0803	0.6059	0.7938	0.293
Mof_H 	H 	0.9503	0.1659	0.7973	0.184
Mof_H 	H 	0.1563	0.0182	0.4252	0.074
Mof_H 	H 	0.0025	0.8198	0.9224	0.174
Mof_H 	H 	0.1956	0.6295	0.6732	0.044
Mof_H 	H 	0.4975	0.1026	0.9224	0.075
Mof_H 	H 	0.9325	0.3712	0.9302	-0.118
Mof_H 	H 	0.9509	0.1588	0.9821	0.745
Mof_H 	H 	0.8515	0.1784	0.9329	-0.019
Mof_H 	H 	0.5323	0.166	0.176	0.075
Mof_H 	H 	0.9673	0.7812	0.9005	-0.058
Mof_H 	H 	0.4197	0.6059	0.8121	0.01
Mof_H 	H 	0.6279	0.6715	0.4784	0.688
Mof_H 	H 	0.3637	0.2181	0.193	0.194
Mof_H 	H 	0.0688	0.801	0.4621	0.636
Mof_H 	H 	0.969	0.2034	0.3615	-0.012
Mof_H 	H 	0.35	0.6093	0.3788	0.694
Mof_H 	H 	0.4206	0.5958	0.8152	0.056
Mof_H 	H 	0.6977	0.7552	0.0159	-0.146
Mof_H 	H 	0.3683	0.4097	0.4406	0.089
Mof_H 	H 	0.6751	0.3087	0.3963	0.194
Mof_H 	H 	0.4678	0.5654	0.8311	0.05
Mof_H 	H 	0.0831	0.787	0.6889	-0.249
Mof_H 	H 	0.6771	0.0022	0.6368	-0.091
Mof_H 	H 	0.1005	0.4029	0.9983	0.072
Mof_H 	H 	0.0497	0.1659	0.7973	0.355
Mof_H 	H 	0.6454	0.6393	0.8739	-0.003
Mof_H 	H 	0.3721	0.5216	0.1931	0.703
Mof_H 	H 	0.0919	0.9417	0.178	-1.279
Mof_H 	H 	0.5925	0.5244	0.2278	0.709
Mof_H 	H 	0.4502	0.1123	0.1555	0.031
Mof_H 	H 	0.0803	0.6814	0.5606	0.03
Mof_H 	H 	0.5767	0.922	0.7393	-0.321
Mof_H 	H 	0.6363	0.9749	0.7819	0.195
Mof_H 	H 	0.5497	0.2027	0.8341	0.006
Mof_H 	H 	0.8229	0.0022	0.3654	-0.117
Mof_H 	H 	0.0805	0.8043	0.8626	-0.027
Mof_H 	H 	0.0486	0.0908	0.9218	0.242
Mof_H 	H 	0.6771	0.3632	0.3654	-0.091
Mof_H 	H 	0.0486	0.831	0.9092	0.243
Mof_H 	H 	0.9075	0.7034	0.2278	0.815
Mof_H 	H 	0.1005	0.0017	0.4046	0.066
Mof_H 	H 	0.352	0.1031	0.6891	0.134
Mof_H 	H 	0.9679	0.2044	0.3627	0.005
Mof_H 	H 	0.9989	0.2354	0.3997	-0.17
Mof_H 	H 	0.0303	0.778	0.8987	-0.252
Mof_H 	H 	0.922	0.6863	0.6217	0.009
Mof_H 	H 	0.4197	0.8792	0.5606	0.049
Mof_H 	H 	0.5321	0.6373	0.7956	0.046
Mof_H 	H 	0.8023	0.2607	0.0159	-0.137
Mof_H 	H 	0.9498	0.786	0.8969	0.459
Mof_H 	H 	0.3494	0.7174	0.2872	0.697
Mof_H 	H 	0.1454	0.2346	0.8739	-0.01
Mof_H 	H 	0.3755	0.3366	0.2467	1.935
Mof_H 	H 	0.8255	0.6219	0.2012	0.754
Mof_H 	H 	0.3437	0.407	0.4252	0.082
Mof_H 	H 	0.852	0.3109	0.8969	0.175
Mof_H 	H 	0.4197	0.2062	0.3941	0.01
Mof_H 	H 	0.4509	0.1867	0.4151	0.04
Mof_H 	H 	0.8077	0.7348	0.693	-0.562
Mof_H 	H 	0.3999	0.5975	0.9996	0.109
Mof_H 	H 	0.5804	0.8005	0.9294	0.053
Mof_H 	H 	0.9503	0.2027	0.3686	0.185
Mof_H 	H 	0.625	0.5409	0.9153	-0.091
Mof_H 	H 	0.5925	0.7034	0.4756	0.711
Mof_H 	H 	0.3637	0.807	0.0251	0.193
Mof_H 	H 	0.3077	0.307	0.2652	-0.564
Mof_H 	H 	0.0792	0.9036	0.2106	0.864
Mof_H 	H 	0.3023	0.7552	0.0159	-0.145
Mof_H 	H 	0.9037	0.1027	0.4357	0.024
Mof_H 	H 	0.578	0.3783	0.3137	0.02
Mof_H 	H 	0.2039	0.5949	0.6295	-0.062
Mof_H 	H 	0.7202	0.1019	0.8583	0.061
Mof_H 	H 	0.9197	0.2062	0.8121	0.185
Mof_H 	H 	0.4509	0.8233	0.9821	-0.021
Mof_H 	H 	0.3103	0.8116	0.0574	1.291
Mof_H 	H 	0.7961	0.3705	0.9654	-0.083
Mof_H 	H 	0.0806	0.827	0.3207	0.043
Mof_H 	H 	0.8471	0.8303	0.7602	-1.092
Mof_H 	H 	0.1245	0.3366	0.0899	1.905
Mof_H 	H 	0.8249	0.6037	0.6913	0.21
Mof_H 	H 	0.6467	0.7382	0.0751	-1.693
Mof_H 	H 	0.0308	0.1677	0.9903	-0.442
Mof_H 	H 	0.9692	0.0097	0.1774	-0.363
Mof_H 	H 	0.1833	0.7234	0.3991	0.631
Mof_H 	H 	0.8473	0.3867	0.0079	0.155
Mof_H 	H 	0.375	0.3744	0.4591	-0.085
Mof_H 	H 	0.5303	0.1013	0.222	0.108
Mof_H 	H 	0.0491	0.0179	0.1767	0.87
Mof_H 	H 	0.5013	0.2456	0.454	0.035
Mof_H 	H 	0.4539	0.2157	0.7747	0.031
Mof_H 	H 	0.8841	0.5898	0.3953	0.798
Mof_H 	H 	0.6923	0.307	0.2652	-0.564
Mof_H 	H 	0.6159	0.5898	0.1945	0.697
Mof_H 	H 	0.1563	0.407	0.9818	0.081
Mof_H 	H 	0.4233	0.2607	0.1827	-0.321
Mof_H 	H 	0.9195	0.1374	0.9417	-0.045
Mof_H 	H 	0.8023	0.7552	0.7393	-0.139
Mof_H 	H 	0.9989	0.1643	0.7646	-0.169
Mof_H 	H 	0.4679	0.2044	0.8417	0.046
Mof_H 	H 	0.2974	0.5831	0.9337	0.184
Mof_H 	H 	0.6279	0.8069	0.3285	0.688
Mof_H 	H 	0.3533	0.3369	0.2618	-1.718
Mof_H 	H 	0.625	0.0847	0.6256	-0.084
Mof_H 	H 	0.5792	0.307	0.2106	0.876
Mof_H 	H 	0.8683	0.4097	0.9691	0.089
Mof_H 	H 	0.5919	0.2363	0.178	-1.275
Mof_H 	H 	0.0472	0.5701	0.7411	0.521
Mof_H 	H 	0.4697	0.1013	0.222	0.108
Mof_H 	H 	0.9692	0.1677	0.9903	-0.362
Mof_H 	H 	0.1898	0.7537	0.4446	0.641
Mof_H 	H 	0.6751	0.6037	0.9124	0.189
Mof_H 	H 	0.3077	0.9582	0.693	-0.564
Mof_H 	H 	0.7194	0.6377	0.8366	0.053
Mof_H 	H 	0.4989	0.6003	0.7646	0.049
Mof_H 	H 	0.2122	0.2823	0.0612	0.1
Mof_H 	H 	0.4509	0.2284	0.8133	0.04
Mof_H 	H 	0.1563	0.5748	0.593	0.074
Mof_H 	H 	0.3102	0.5554	0.2463	0.687
Mof_H 	H 	0.0925	0.7722	0.4756	0.659
Mof_H 	H 	0.6429	0.8099	0.0295	-0.377
Mof_H 	H 	0.4075	0.7034	0.4756	0.726
Mof_H 	H 	0.9233	0.8173	0.7393	-0.287
Mof_H 	H 	0.4194	0.4937	0.3207	0.055
Mof_H 	H 	0.9275	0.5662	0.6064	0.141
Mof_H 	H 	0.422	0.9354	0.6217	0.02
Mof_H 	H 	0.3721	0.8069	0.3285	0.703
Mof_H 	H 	0.8146	0.9859	0.2246	1.419
Mof_H 	H 	0.375	0.0847	0.6256	-0.085
Mof_H 	H 	0.0011	0.2354	0.3997	0.226
Mof_H 	H 	0.648	0.1031	0.6891	0.134
Mof_H 	H 	0.6527	0.3867	0.3788	0.123
Mof_H 	H 	0.6529	0.2398	0.1697	-1.087
Mof_H 	H 	0.1977	0.9841	0.2448	-0.141
Mof_H 	H 	0.3494	0.5698	0.2826	0.697
Mof_H 	H 	0.1901	0.913	0.2284	-1.001
Mof_H 	H 	0.4514	0.0782	0.9092	0.027
Mof_H 	H 	0.9275	0.3936	0.9598	0.129
Mof_H 	H 	0.875	0.3744	0.9153	-0.105
Mof_H 	H 	0.0806	0.4937	0.173	0.043
Mof_H 	H 	0.1956	0.0437	0.3705	0.044
Mof_H 	H 	0.8167	0.7234	0.3991	0.743
Mof_H 	H 	0.8999	0.4021	0.9996	0.124
Mof_H 	H 	0.1833	0.6009	0.3243	0.631
Mof_H 	H 	0.5773	0.5533	0.3237	-0.066
Mof_H 	H 	0.4986	0.0181	0.8714	0.059
Mof_H 	H 	0.4081	0.2363	0.178	-1.276
Mof_H 	H 	0.3755	0.9101	0.6634	1.935
Mof_H 	H 	0.8471	0.2398	0.0701	-1.075
Mof_H 	H 	0.6959	0.3271	0.3698	0.074
Mof_H 	H 	0.5323	0.824	0.99	0.075
Mof_H 	H 	0.3428	0.3546	0.4486	0.14
Mof_H 	H 	0.5025	0.1026	0.9224	0.075
Mof_H 	H 	0.9678	0.1689	0.4346	-0.038
Mof_H 	H 	0.5725	0.0402	0.6064	0.115
Mof_H 	H 	0.5804	0.0706	0.8711	0.053
Mof_H 	H 	0.3473	0.6212	0.0079	0.138
Mof_H 	H 	0.6279	0.5216	0.1931	0.686
Mof_H 	H 	0.0327	0.7812	0.9005	-0.118
Mof_H 	H 	0.7806	0.1634	0.3623	0.054
Mof_H 	H 	0.35	0.7695	0.3907	0.694
Mof_H 	H 	0.1977	0.2607	0.0159	-0.14
Mof_H 	H 	0.4678	0.1689	0.7343	0.05
Mof_H 	H 	0.9194	0.6793	0.5063	0.028
Mof_H 	H 	0.6563	0.407	0.4252	0.083
Mof_H 	H 	0.0725	0.3936	0.9598	0.105
Mof_H 	H 	0.9012	0.5612	0.6632	0.038
Mof_H 	H 	0.578	0.9354	0.6217	0.02
Mof_H 	H 	0.1901	0.3154	0.087	-0.996
Mof_H 	H 	0.5806	0.6793	0.173	0.054
Mof_H 	H 	0.1244	0.285	0.1062	-0.457
Mof_H 	H 	0.6572	0.094	0.6454	0.141
Mof_H 	H 	0.3077	0.7348	0.0418	-0.555
Mof_H 	H 	0.9677	0.824	0.834	-0.234
Mof_H 	H 	0.9081	0.9417	0.178	-1.271
Mof_H 	H 	0.1572	0.094	0.4486	0.124
Mof_H 	H 	0.6506	0.7128	0.4302	0.678
Mof_H 	H 	0.0502	0.1031	0.8891	0.55
Mof_H 	H 	0.8563	0.3127	0.1103	1.301
Mof_H 	H 	0.6563	0.0182	0.593	0.083
Mof_H 	H 	0.2194	0.1634	0.3623	0.052
Mof_H 	H 	0.0803	0.1879	0.3941	0.293
Mof_H 	H 	0.7878	0.7789	0.7177	0.105
Mof_H 	H 	0.5486	0.0782	0.9092	0.028
Mof_H 	H 	0.5322	0.1689	0.7343	0.05
Mof_H 	H 	0.1527	0.9921	0.3788	0.11
Mof_H 	H 	0.9986	0.8533	0.8714	-0.314
Mof_H 	H 	0.9509	0.0179	0.1767	0.747
Mof_H 	H 	0.3841	0.5898	0.1945	0.715
Mof_H 	H 	0.9197	0.6814	0.5606	0.016
Mof_H 	H 	0.6317	0.5594	0.9691	0.076
Mof_H 	H 	0.9509	0.8233	0.8412	0.747
Mof_H 	H 	0.4697	0.778	0.8793	0.109
Mof_H 	H 	0.6923	0.7348	0.0418	-0.555
Mof_H 	H 	0.5804	0.1289	0.1995	0.053
Mof_H 	H 	0.8473	0.9921	0.3788	0.14
Mof_H 	H 	0.9196	0.0706	0.1995	0.511
Mof_H 	H 	0.7961	0.5949	0.6295	-0.101
Mof_H 	H 	0.8437	0.5748	0.593	0.094
Mof_H 	H 	0.2974	0.3506	0.4169	0.183
Mof_H 	H 	0.4075	0.7722	0.2966	0.726
Mof_H 	H 	0.1906	0.9558	0.266	-0.123
Mof_H 	H 	0.5011	0.2354	0.8357	0.049
Mof_H 	H 	0.5675	0.0698	0.6288	-0.107
Mof_H 	H 	0.5486	0.0908	0.169	0.028
Mof_H 	H 	0.7039	0.5949	0.9654	-0.061
Mof_H 	H 	0.4498	0.786	0.8891	-0.024
Mof_H 	H 	0.7194	0.1989	0.3623	0.053
Mof_H 	H 	0.3044	0.3268	0.3705	0.041
Mof_H 	H 	0.1529	0.8303	0.7602	-1.094
Mof_H 	H 	0.5014	0.1286	0.1467	0.059
Mof_H 	H 	0.6572	0.5514	0.906	0.159
Mof_H 	H 	0.0011	0.6003	0.8357	0.226
Mof_H 	H 	0.5497	0.6314	0.7973	0.006
Mof_H 	H 	0.0925	0.5244	0.2966	0.659
Mof_H 	H 	0.8023	0.9841	0.2448	-0.139
Mof_H 	H 	0.6005	0.5954	0.9983	0.078
Mof_H 	H 	0.1001	0.0004	0.4025	0.097
Mof_H 	H 	0.9197	0.8792	0.3186	0.016
Mof_H 	H 	0.8533	0.7382	0.6631	-1.719
Mof_H 	H 	0.3146	0.7754	0.0141	1.403
Mof_H 	H 	0.85	0.7695	0.3788	0.767
Mof_H 	H 	0.1854	0.7754	0.7613	1.406
Mof_H 	H 	0.5327	0.1193	0.9005	0.089
Mof_H 	H 	0.0323	0.166	0.99	-0.303
Mof_H 	H 	0.4197	0.1879	0.7938	0.01
Mof_H 	H 	0.578	0.6863	0.0646	0.019
Mof_H 	H 	0.6245	0.9101	0.6634	1.935
Mof_H 	H 	0.6159	0.8055	0.3953	0.699
Mof_H 	H 	0.9312	0.5379	0.3389	0.816
Mof_H 	H 	0.4502	0.8445	0.9568	0.031
Mof_H 	H 	0.8094	0.9558	0.266	-0.121
Mof_H 	H 	0.1959	0.3271	0.9573	0.135
Mof_H 	H 	0.8637	0.9749	0.193	0.193
Mof_H 	H 	0.6771	0.6346	0.9978	-0.075
Mof_H 	H 	0.4012	0.3368	0.4388	0.028
Mof_H 	H 	0.7798	0.1019	0.2436	0.061
Mof_H 	H 	0.6901	0.913	0.6846	-1.003
Mof_H 	H 	0.7026	0.3506	0.4169	0.184
Mof_H 	H 	0.9012	0.102	0.4388	0.038
Mof_H 	H 	0.0963	0.333	0.8973	0.012
Mof_H 	H 	0.0803	0.4394	0.1208	0.03
Mof_H 	H 	0.6906	0.3102	0.266	-0.126
Mof_H 	H 	0.6363	0.807	0.0251	0.194
Mof_H 	H 	0.4498	0.1031	0.214	-0.023
Mof_H 	H 	0.8721	0.8069	0.4784	0.786
Mof_H 	H 	0.1485	0.0671	0.2455	-0.02
Mof_H 	H 	0.8841	0.6047	0.1945	0.796
Mof_H 	H 	0.9012	0.3368	0.898	0.041
Mof_H 	H 	0.4514	0.831	0.9218	0.027
Mof_H 	H 	0.531	0.6385	0.7966	0.049
Mof_H 	H 	0.1159	0.6047	0.1945	0.66
Mof_H 	H 	0.5767	0.2607	0.1827	-0.321
Mof_H 	H 	0.5309	0.2665	0.4338	0.056
Mof_H 	H 	0.3515	0.1784	0.2455	-0.004
Mof_H 	H 	0.6317	0.4097	0.4406	0.089
Mof_H 	H 	0.9195	0.0583	0.1957	-0.045
Mof_H 	H 	0.9208	0.307	0.0964	0.869
Mof_H 	H 	0.648	0.586	0.8969	0.155
Mof_H 	H 	0.5806	0.827	0.5063	0.054
Mof_H 	H 	0.0773	0.7704	0.3237	-0.053
Mof_H 	H 	0.6529	0.9299	0.7602	-1.087
Mof_H 	H 	0.4194	0.6793	0.173	0.054
Mof_H 	H 	0.0502	0.1109	0.214	0.551
Mof_H 	H 	0.5725	0.5662	0.9598	0.103
Mof_H 	H 	0.2202	0.1417	0.8981	0.058
Mof_H 	H 	0.7806	0.1989	0.8366	0.053
Mof_H 	H 	0.1429	0.9705	0.1901	-0.387
Mof_H 	H 	0.3229	0.3632	0.3654	-0.092
Mof_H 	H 	0.422	0.6863	0.0646	0.019
Mof_H 	H 	0.5803	0.4394	0.3186	0.049
Mof_H 	H 	0.5792	0.7894	0.0964	0.864
Mof_H 	H 	0.648	0.3109	0.414	0.134
Mof_H 	H 	0.3999	0.0004	0.5979	0.108
Mof_H 	H 	0.4275	0.0402	0.6064	0.114
Mof_H 	H 	0.0321	0.2044	0.3627	-0.079
Mof_H 	H 	0.3437	0.5748	0.9818	0.1
Mof_H 	H 	0.2122	0.7789	0.7177	0.101
Mof_H 	H 	0.0804	0.1289	0.9294	0.547
Mof_H 	H 	0.2798	0.1417	0.2436	0.06
Mof_H 	H 	0.125	0.3744	0.9153	-0.103
Mof_H 	H 	0.531	0.1581	0.3615	0.049
Mof_H 	H 	0.5831	0.3111	0.213	-0.245
Mof_H 	H 	0.1897	0.2458	0.0574	1.29
Mof_H 	H 	0.2878	0.7789	0.0612	0.097
Mof_H 	H 	0.0322	0.5654	0.7343	-0.167
Mof_H 	H 	0.0309	0.5662	0.7335	-0.224
Mof_H 	H 	0.8103	0.9426	0.1884	1.307
Mof_H 	H 	0.15	0.6093	0.2305	0.647
Mof_H 	H 	0.4275	0.5662	0.9598	0.103
Mof_H 	H 	0.1245	0.7533	0.6634	1.915
Mof_H 	H 	0.6854	0.2387	0.2246	1.423
Mof_H 	H 	0.3167	0.7234	0.3243	0.675
Mof_H 	H 	0.7202	0.1417	0.2436	0.061
Mof_H 	H 	0.0831	0.9019	0.213	-0.249
Mof_H 	H 	0.6898	0.6909	0.4446	0.667
Mof_H 	H 	0.85	0.6093	0.2305	0.765
Mof_H 	H 	0.3044	0.6295	0.9563	0.16
Mof_H 	H 	0.0014	0.1286	0.9819	0.084
Mof_H 	H 	0.9697	0.1013	0.8793	-0.178
Mof_H 	H 	0.6833	0.6757	0.3991	0.653
Mof_H 	H 	0.6897	0.8116	0.0574	1.292
Mof_H 	H 	0.9986	0.0181	0.1467	-0.313
Mof_H 	H 	0.4503	0.1659	0.3686	0.006
Mof_H 	H 	0.2026	0.3506	0.9337	0.202
Mof_H 	H 	0.1833	0.6757	0.2766	0.63
Mof_H 	H 	0.8995	0.4029	0.9983	0.09
Mof_H 	H 	0.2961	0.5949	0.9654	-0.063
Mof_H 	H 	0.8571	0.9705	0.1901	-0.382
Mof_H 	H 	0.5794	0.5958	0.8152	0.056
Mof_H 	H 	0.5963	0.333	0.4357	0.024
Mof_H 	H 	0.5491	0.1867	0.4151	0.04
Mof_H 	H 	0.875	0.5409	0.6256	-0.098
Mof_H 	H 	0.4195	0.8043	0.9417	0.007
Mof_H 	H 	0.1363	0.9749	0.193	0.184
Mof_H 	H 	0.3094	0.3102	0.266	-0.126
Mof_H 	H 	0.9987	0.2456	0.7916	-0.201
Mof_H 	H 	0.9975	0.0776	0.8974	-0.241
Mof_H 	H 	0.8428	0.5514	0.6454	0.161
Mof_H 	H 	0.6854	0.9859	0.7613	1.423
Mof_H 	H 	0.9206	0.5958	0.7806	0.006
Mof_H 	H 	0.9677	0.01	0.176	-0.234
Mof_H 	H 	0.2202	0.1019	0.2436	0.058
Mof_H 	H 	0.6001	0.4021	0.4025	0.108
Mof_H 	H 	0.7122	0.2823	0.2211	0.098
Mof_H 	H 	0.9986	0.1286	0.9819	-0.312
Mof_H 	H 	0.8044	0.3268	0.9563	0.158
Mof_H 	H 	0.0497	0.6314	0.8341	0.355
Mof_H 	H 	0.8437	0.0182	0.4252	0.093
Mof_H 	H 	0.3995	0.4029	0.4046	0.075
Mof_H 	H 	0.9502	0.0432	0.1555	0.319
Mof_H 	H 	0.3146	0.9859	0.7613	1.423
Mof_H 	H 	0.8077	0.307	0.0418	-0.554
Mof_H 	H 	0.8255	0.5793	0.3781	0.755
Mof_H 	H 	0.3099	0.913	0.6846	-1.003
Mof_H 	H 	0.4673	0.7812	0.8807	0.089
Mof_H 	H 	0.0498	0.8445	0.8877	0.316
Mof_H 	H 	0.1506	0.5698	0.2872	0.652
Mof_H 	H 	0.4677	0.01	0.834	0.075
Mof_H 	H 	0.0025	0.1026	0.1802	0.175
Mof_H 	H 	0.9679	0.1583	0.7956	0.005
Mof_H 	H 	0.6506	0.5698	0.2826	0.677
Mof_H 	H 	0.1923	0.9582	0.2652	-0.562
Mof_H 	H 	0.6527	0.6212	0.0079	0.138
Mof_H 	H 	0.6506	0.7174	0.2872	0.678
Mof_H 	H 	0.7122	0.7789	0.0612	0.097
Mof_H 	H 	0.65	0.6093	0.3788	0.676
Mof_H 	H 	0.4081	0.822	0.0583	-1.257
Mof_H 	H 	0.0322	0.2657	0.8311	-0.167
Mof_H 	H 	0.4208	0.7894	0.0964	0.864
Mof_H 	H 	0.148	0.586	0.6891	0.115
Mof_H 	H 	0.3546	0.2346	0.3607	-0.002
Mof_H 	H 	0.6001	0.0004	0.5979	0.108
Mof_H 	H 	0.1529	0.2398	0.0701	-1.087
Mof_H 	H 	0.3099	0.3154	0.2284	-1.003
Mof_H 	H 	0.9208	0.9036	0.2106	0.88
Mof_H 	H 	0.2026	0.0663	0.4169	0.169
Mof_H 	H 	0.8546	0.6393	0.7654	-0.009
Mof_H 	H 	0.0803	0.8792	0.3186	0.03
Mof_H 	H 	0.8103	0.8116	0.7542	1.307
Mof_H 	H 	0.852	0.1031	0.414	0.154
Mof_H 	H 	0.9081	0.2363	0.0583	-1.251
Mof_H 	H 	0.3533	0.7382	0.0751	-1.693
Mof_H 	H 	0.8103	0.2458	0.0574	1.29
Mof_H 	H 	0.4673	0.1193	0.9005	0.089
Mof_H 	H 	0.9509	0.1867	0.7716	0.153
Mof_H 	H 	0.2961	0.3705	0.4051	-0.081
Mof_H 	H 	0.9528	0.5701	0.7411	0.247
Mof_H 	H 	0.9206	0.2194	0.8152	0.006
Mof_H 	H 	0.1363	0.807	0.7819	0.184
Mof_H 	H 	0.5502	0.786	0.8891	-0.023
Mof_H 	H 	0.3094	0.9558	0.6898	-0.126
Mof_H 	H 	0.0013	0.2456	0.7916	0.195
Mof_H 	H 	0.9528	0.171	0.4299	0.247
Mof_H 	H 	0.8044	0.6295	0.6732	0.038
Mof_H 	H 	0.6437	0.7976	0.1103	1.303
Mof_H 	H 	0.5308	0.0097	0.8323	0.079
Mof_H 	H 	0.3094	0.734	0.0442	-0.124
Mof_H 	H 	0.5831	0.787	0.0981	-0.241
Mof_H 	H 	0.3103	0.2458	0.1884	1.309
Mof_H 	H 	0.5491	0.8233	0.9821	-0.02
Mof_H 	H 	0.4194	0.827	0.5063	0.055
Mof_H 	H 	0.3146	0.2387	0.2246	1.422
Mof_H 	H 	0.1572	0.5514	0.6454	0.123
Mof_H 	H 	0.4233	0.8173	0.078	-0.315
Mof_H 	H 	0.0491	0.1867	0.7716	0.178
Mof_H 	H 	0.9514	0.0908	0.9218	0.262
Mof_H 	H 	0.8099	0.7716	0.6846	-1.004
Mof_H 	H 	0.3249	0.6037	0.9124	0.189
Mof_H 	H 	0.9528	0.2589	0.829	0.246
Mof_H 	H 	0.4509	0.5849	0.7716	0.04
Mof_H 	H 	0.9679	0.6373	0.8417	0.005
Mof_H 	H 	0.5803	0.8792	0.5606	0.049
Mof_H 	H 	0.1771	0.0022	0.3654	-0.07
Mof_H 	H 	0.8756	0.285	0.1062	-0.438
Mof_H 	H 	0.9075	0.5244	0.2966	0.816
Mof_H 	H 	0.0491	0.1588	0.9821	0.867
Mof_H 	H 	0.0014	0.8533	0.8714	0.084
Mof_H 	H 	0.9502	0.1123	0.9568	0.318
Mof_H 	H 	0.5805	0.0583	0.8626	0.007
Mof_H 	H 	0.6429	0.9705	0.7804	-0.383
Mof_H 	H 	0.9691	0.5662	0.7335	-0.072
Mof_H 	H 	0.8755	0.7533	0.6634	1.936
Mof_H 	H 	0.6454	0.1261	0.7654	-0.002
Mof_H 	H 	0.2039	0.3705	0.9654	-0.092
Mof_H 	H 	0.8473	0.6212	0.6133	0.14
Mof_H 	H 	0.4514	0.0908	0.169	0.027
Mof_H 	H 	0.0792	0.7894	0.693	0.864
Mof_H 	H 	0.6897	0.2458	0.1884	1.31
Mof_H 	H 	0.0013	0.546	0.7544	0.195
Mof_H 	H 	0.9195	0.8043	0.8626	-0.043
Mof_H 	H 	0.1923	0.7348	0.693	-0.562
Mof_H 	H 	0.4169	0.9019	0.6889	-0.245
Mof_H 	H 	0.969	0.6385	0.8419	-0.013
Mof_H 	H 	0.3099	0.7716	0.087	-0.988
Mof_H 	H 	0.1244	0.8938	0.1788	-0.46
Mof_H 	H 	0.8255	0.7988	0.4207	0.755
Mof_H 	H 	0.3229	0.6346	0.9978	-0.076
Mof_H 	H 	0.8546	0.2346	0.8739	-0.01
Mof_H 	H 	0.469	0.2034	0.8419	0.049
Mof_H 	H 	0.9037	0.5643	0.667	0.024
Mof_H 	H 	0.8515	0.0671	0.2455	-0.019
Mof_H 	H 	0.5303	0.778	0.8793	0.108
Mof_H 	H 	0.1317	0.5594	0.5903	0.079
Mof_H 	H 	0.9169	0.787	0.6889	-0.227
Mof_H 	H 	0.0675	0.0698	0.441	-0.104
Mof_H 	H 	0.125	0.5409	0.6256	-0.074
Mof_H 	H 	0.5498	0.8445	0.9568	0.032
Mof_H 	H 	0.9233	0.922	0.1827	-0.287
Mof_H 	H 	0.5806	0.4937	0.3207	0.054
Mof_H 	H 	0.4312	0.6611	0.4621	0.711
Mof_H 	H 	0.1437	0.7976	0.6873	1.306
Mof_H 	H 	0.4233	0.922	0.7393	-0.321
Mof_H 	H 	0.5461	0.559	0.7843	0.031
Mof_H 	H 	0.1901	0.7716	0.6846	-1.001
Mof_H 	H 	0.4509	0.0179	0.8412	-0.021
Mof_H 	H 	0.0461	0.2157	0.441	0.123
Mof_H 	H 	0.5988	0.5612	0.898	0.032
Mof_H 	H 	0.4012	0.5612	0.898	0.032
Mof_H 	H 	0.0767	0.2607	0.078	-0.32
Mof_H 	H 	0.5805	0.1374	0.1957	0.007
Mof_H 	H 	0.1317	0.4097	0.9691	0.087
Mof_H 	H 	0.5321	0.1583	0.3627	0.045
Mof_H 	H 	0.5688	0.5379	0.199	0.695
Mof_H 	H 	0.0831	0.3111	0.0981	-0.247
Mof_H 	H 	0.3756	0.8938	0.715	-0.457
Mof_H 	H 	0.5327	0.7812	0.8807	0.089
Mof_H 	H 	0.5963	0.5643	0.8973	0.029
Mof_H 	H 	0.8683	0.0309	0.4406	0.102
Mof_H 	H 	0.0498	0.1123	0.9568	0.315
Mof_H 	H 	0.9503	0.6314	0.8341	0.185
Mof_H 	H 	0.6959	0.0427	0.6729	0.074
Mof_H 	H 	0.0804	0.0706	0.1995	0.549
Mof_H 	H 	0.5491	0.2284	0.8133	0.04
Mof_H 	H 	0.4697	0.1207	0.8987	0.108
Mof_H 	H 	0.4012	0.102	0.6632	0.028
Mof_H 	H 	0.4037	0.1027	0.667	0.024
Mof_H 	H 	0.9312	0.6611	0.199	0.814
Mof_H 	H 	0.1906	0.734	0.6898	-0.123
Mof_H 	H 	0.4692	0.1677	0.1774	0.079
Mof_H 	H 	0.0803	0.2062	0.8121	0.292
Mof_H 	H 	0.3995	0.0017	0.5971	0.075
Mof_H 	H 	0.4673	0.0995	0.2188	0.089
Mof_H 	H 	0.9697	0.1207	0.222	-0.179
Mof_H 	H 	0.9514	0.0782	0.169	0.262
Mof_H 	H 	0.1454	0.6393	0.7654	-0.01
Mof_H 	H 	0.3546	0.6393	0.8739	-0.003
Mof_H 	H 	0.4312	0.5379	0.199	0.711
Mof_H 	H 	0.9673	0.0995	0.8807	-0.057
Mof_H 	H 	0.5011	0.1643	0.3997	0.049
Mof_H 	H 	0.0988	0.102	0.4388	0.021
Mof_H 	H 	0.4989	0.2354	0.8357	0.049
Mof_H 	H 	0.5498	0.0432	0.8877	0.032
Mof_H 	H 	0.4528	0.5701	0.829	-0.015
Mof_H 	H 	0.3546	0.1261	0.7654	-0.002
Mof_H 	H 	0.4206	0.2194	0.4042	0.057
Mof_H 	H 	0.4539	0.2253	0.441	0.031
Mof_H 	H 	0.9312	0.801	0.4621	0.816
Mof_H 	H 	0.0792	0.307	0.0964	0.859
Mof_H 	H 	0.4325	0.0698	0.6288	-0.108
Mof_C 	C 	0.1653	0.2424	0.0368	-3.776
Mof_C 	C 	0.6421	0.6208	0.4066	-2.371
Mof_C 	C 	0.6605	0.2153	0.3369	0.077
Mof_C 	C 	0.8993	0.6756	0.2124	-2.7
Mof_C 	C 	0.367	0.0904	0.6628	-0.489
Mof_C 	C 	0.6796	0.3328	0.3954	-0.588
Mof_C 	C 	0.2946	0.1083	0.8402	-0.155
Mof_C 	C 	0.5	0.1696	0.3781	-0.312
Mof_C 	C 	-3.11266e-33	0.0657	0.2029	0.55
Mof_C 	C 	0.0472	0.5805	0.7693	-0.519
Mof_C 	C 	0.545	0.6765	0.2175	0.095
Mof_C 	C 	0.795	0.1446	0.338	-0.143
Mof_C 	C 	0.332	0.9343	0.6867	3.263
Mof_C 	C 	-2.17886e-32	0.8729	0.3196	-0.101
Mof_C 	C 	0.5491	0.6071	0.7982	-0.106
Mof_C 	C 	0.3653	0.3904	0.4022	-0.312
Mof_C 	C 	0.1316	0.9487	0.2265	-0.158
Mof_C 	C 	0.1002	0.914	0.1971	1.421
Mof_C 	C 	0.1207	0.7609	0.4222	1.697
Mof_C 	C 	0.8998	0.914	0.1971	1.392
Mof_C 	C 	0.6265	0.3517	0.3995	0.208
Mof_C 	C 	0.6885	0.7593	0.0417	-0.333
Mof_C 	C 	0.455	0.7825	0.459	0.095
Mof_C 	C 	0.4509	0.8043	0.9171	-0.046
Mof_C 	C 	0.633	0.3372	0.4276	-0.49
Mof_C 	C 	0.9508	0.8192	0.8636	-1.002
Mof_C 	C 	0.6059	0.3929	0.421	-0.311
Mof_C 	C 	0.0491	0.0829	0.1957	-0.938
Mof_C 	C 	0.3395	0.2153	0.3369	0.077
Mof_C 	C 	0.6002	0.914	0.7169	1.43
Mof_C 	C 	0.4251	0.6033	0.2653	-0.289
Mof_C 	C 	0.6016	0.5629	0.921	0.267
Mof_C 	C 	0.5	0.1006	0.2062	-0.469
Mof_C 	C 	0.8722	0.2396	0.0512	3.769
Mof_C 	C 	0.0491	0.8043	0.8872	-0.94
Mof_C 	C 	0.295	0.662	0.8554	-0.137
Mof_C 	C 	0.9544	0.685	0.6091	0.118
Mof_C 	C 	0.0941	0.2765	0.0194	0.391
Mof_C 	C 	0.4251	0.662	0.3967	-0.289
Mof_C 	C 	0.0491	0.1128	0.9171	-0.936
Mof_C 	C 	0.8684	0.7735	0.7222	-0.127
Mof_C 	C 	0.8395	0.6631	0.7847	0.078
Mof_C 	C 	0.1197	0.7783	0.6874	-4.007
Mof_C 	C 	0.6885	0.2824	0.2407	-0.336
Mof_C 	C 	0.3204	0.6046	0.9374	-0.601
Mof_C 	C 	0.5	0.4467	0.3196	0.024
Mof_C 	C 	0.9509	0.6071	0.8089	-0.406
Mof_C 	C 	0.5	0.0706	0.8262	0.325
Mof_C 	C 	0.168	0.3133	0.0657	3.234
Mof_C 	C 	0.3376	0.0872	0.8177	0.094
Mof_C 	C 	0.6653	0.7944	0.0368	-3.782
Mof_C 	C 	0.5491	0.1911	0.3929	-0.106
Mof_C 	C 	0.6007	0.6756	0.4632	-2.379
Mof_C 	C 	0.8347	0.2424	0.0368	-3.778
Mof_C 	C 	0.8793	0.6613	0.2391	2.047
Mof_C 	C 	0.4526	0.6821	0.1097	-0.131
Mof_C 	C 	0.8376	0.0872	0.2695	0.098
Mof_C 	C 	0.1421	0.6208	0.2142	-2.262
Mof_C 	C 	0.6016	0.3581	0.4371	0.244
Mof_C 	C 	0.3998	0.2831	0.1971	1.429
Mof_C 	C 	0.6265	0.0478	0.6483	0.208
Mof_C 	C 	0.6265	0.6005	0.9522	0.244
Mof_C 	C 	0.3803	0.3126	0.2217	-4.043
Mof_C 	C 	0.2726	0.1391	0.8366	0.038
Mof_C 	C 	-3.73519e-32	0.2219	0.8624	0.105
Mof_C 	C 	0.8998	0.8029	0.7169	1.392
Mof_C 	C 	0.1421	0.7858	0.4066	-2.267
Mof_C 	C 	0.545	0.541	0.3235	0.095
Mof_C 	C 	0.8115	0.7593	0.7176	-0.362
Mof_C 	C 	0.0491	0.6071	0.8089	-0.633
Mof_C 	C 	-1.24506e-32	0.1006	0.8944	0.346
Mof_C 	C 	0.5474	0.4276	0.3179	-0.131
Mof_C 	C 	0.8653	0.0118	0.4022	-0.35
Mof_C 	C 	0.2946	0.1598	0.2681	-0.155
Mof_C 	C 	0.705	0.1446	0.8066	-0.136
Mof_C 	C 	0.133	0.5724	0.6628	-0.436
Mof_C 	C 	0.0492	0.0444	0.1808	-1.152
Mof_C 	C 	0.8579	0.5934	0.3792	-2.679
Mof_C 	C 	0.668	0.7524	0.0657	3.211
Mof_C 	C 	0.8684	0.2778	0.0513	-0.122
Mof_C 	C 	0.6207	0.7609	0.3387	1.786
Mof_C 	C 	0.8998	0.2831	0.086	1.368
Mof_C 	C 	0.867	0.0904	0.4276	-0.556
Mof_C 	C 	0.0473	0.8165	0.3216	-0.169
Mof_C 	C 	0.9509	0.1911	0.7982	-0.405
Mof_C 	C 	0.1016	0.079	0.4371	0.198
Mof_C 	C 	0.335	0.5758	0.2632	-2.428
Mof_C 	C 	0.133	0.0904	0.4276	-0.437
Mof_C 	C 	0.5492	0.0444	0.8636	-0.07
Mof_C 	C 	0.1016	0.5629	0.6419	0.198
Mof_C 	C 	0.832	0.9343	0.2476	3.263
Mof_C 	C 	0.3722	0.2396	0.1884	3.832
Mof_C 	C 	0.3115	0.9583	0.7176	-0.338
Mof_C 	C 	0.5473	0.5051	0.3216	-0.189
Mof_C 	C 	0.8735	0.0478	0.3995	0.233
Mof_C 	C 	0.6421	0.7858	0.3792	-2.371
Mof_C 	C 	0.4059	0.9806	0.7235	0.392
Mof_C 	C 	0.8347	0.7944	0.7576	-3.83
Mof_C 	C 	0.7946	0.1598	0.8917	-0.165
Mof_C 	C 	0.0474	0.4276	0.1097	-0.091
Mof_C 	C 	0.3803	0.9091	0.6874	-4.043
Mof_C 	C 	-4.66899e-33	0.1056	0.2062	0.347
Mof_C 	C 	0.8193	0.0302	0.3835	0.32
Mof_C 	C 	0.4509	0.2018	0.8089	-0.106
Mof_C 	C 	0.5	0.1512	0.1731	-0.395
Mof_C 	C 	0.795	0.662	0.8066	-0.143
Mof_C 	C 	0.5	0.1815	0.7489	-0.293
Mof_C 	C 	0.4527	0.6784	0.1835	-0.189
Mof_C 	C 	0.665	0.6874	0.4242	-2.369
Mof_C 	C 	0.1002	0.8029	0.7169	1.421
Mof_C 	C 	0.9102	0.0404	0.3647	0.284
Mof_C 	C 	0.3941	0.3929	0.421	-0.31
Mof_C 	C 	0.3579	0.6208	0.4066	-2.426
Mof_C 	C 	0.9526	0.8903	0.3179	0.005
Mof_C 	C 	0.2726	0.6975	0.8609	0.038
Mof_C 	C 	0.8376	0.7305	0.8177	0.098
Mof_C 	C 	0.832	0.3133	0.0657	3.214
Mof_C 	C 	0.795	0.1934	0.8554	-0.143
Mof_C 	C 	0.295	0.1446	0.8066	-0.137
Mof_C 	C 	0.835	0.6874	0.2632	-2.666
Mof_C 	C 	0.455	0.6765	0.2175	0.095
Mof_C 	C 	0.5492	0.1364	0.1808	-0.07
Mof_C 	C 	0.5473	0.8165	0.4949	-0.189
Mof_C 	C 	0.2274	0.6975	0.8366	0.042
Mof_C 	C 	0.8204	0.6046	0.6672	-0.647
Mof_C 	C 	0.1265	0.0478	0.3995	0.194
Mof_C 	C 	0.5749	0.662	0.3967	-0.273
Mof_C 	C 	0.367	0.3372	0.4276	-0.489
Mof_C 	C 	0.6207	0.6613	0.4222	1.786
Mof_C 	C 	0.4544	0.9241	0.6091	0.055
Mof_C 	C 	0.9528	0.5805	0.7693	-0.336
Mof_C 	C 	-7.78165e-34	0.4467	0.1271	-0.101
Mof_C 	C 	0.3579	0.7858	0.3792	-2.426
Mof_C 	C 	0.3941	0.579	0.9719	-0.277
Mof_C 	C 	0.9251	0.7347	0.3967	-0.389
Mof_C 	C 	0.8803	0.3126	0.0909	-3.986
Mof_C 	C 	0.4509	0.0829	0.8872	-0.046
Mof_C 	C 	0.0492	0.1364	0.9556	-1.149
Mof_C 	C 	0.5491	0.1128	0.1957	-0.047
Mof_C 	C 	0.5	0.2219	0.3595	0.318
Mof_C 	C 	-1.8676e-32	0.2085	0.3781	-0.112
Mof_C 	C 	0.1007	0.5368	0.3244	-2.244
Mof_C 	C 	0.0491	0.2018	0.3929	-0.632
Mof_C 	C 	0.3395	0.1216	0.7847	0.077
Mof_C 	C 	0.8793	0.5778	0.3387	2.051
Mof_C 	C 	0.3793	0.5778	0.2391	1.831
Mof_C 	C 	0.2054	0.1598	0.8917	-0.163
Mof_C 	C 	0.5749	0.7347	0.338	-0.273
Mof_C 	C 	0.3653	0.0118	0.6096	-0.312
Mof_C 	C 	0.5472	0.5805	0.8112	-0.116
Mof_C 	C 	0.3684	0.9487	0.7222	-0.149
Mof_C 	C 	0.165	0.6874	0.2632	-2.27
Mof_C 	C 	0.168	0.9343	0.2476	3.253
Mof_C 	C 	0.0456	0.685	0.6091	0.009
Mof_C 	C 	0.4526	0.8903	0.5724	-0.131
Mof_C 	C 	0.6197	0.3126	0.2217	-4.043
Mof_C 	C 	0.1347	0.0118	0.4022	-0.285
Mof_C 	C 	0.1653	0.7944	0.7576	-3.795
Mof_C 	C 	0.5	0.1376	0.7781	0.318
Mof_C 	C 	0.1624	0.1823	0.9128	0.094
Mof_C 	C 	0.8735	0.6005	0.6483	0.233
Mof_C 	C 	0.1653	0.9632	0.2056	-3.796
Mof_C 	C 	0.5	0.5674	0.8185	-0.292
Mof_C 	C 	0.3115	0.7593	0.0417	-0.335
Mof_C 	C 	0.045	0.6765	0.459	0.058
Mof_C 	C 	0.6002	0.8029	0.086	1.405
Mof_C 	C 	0.3204	0.0626	0.6672	-0.588
Mof_C 	C 	0.5	0.6804	0.1271	0.024
Mof_C 	C 	0.4508	0.0444	0.8636	-0.069
Mof_C 	C 	0.8941	0.3929	0.9719	-0.306
Mof_C 	C 	0.8984	0.3581	0.921	0.326
Mof_C 	C 	0.332	0.3133	0.2476	3.263
Mof_C 	C 	-0	0.7938	0.8994	0.352
Mof_C 	C 	0.1796	0.6046	0.6672	-0.543
Mof_C 	C 	0.9508	0.0444	0.1808	-1.001
Mof_C 	C 	0.335	0.7368	0.3126	-2.429
Mof_C 	C 	0.9528	0.1888	0.4195	-0.335
Mof_C 	C 	0.545	0.7825	0.459	0.095
Mof_C 	C 	0.4509	0.6071	0.7982	-0.106
Mof_C 	C 	-1.55633e-33	0.0706	0.2444	0.05
Mof_C 	C 	0.5474	0.6821	0.1097	-0.131
Mof_C 	C 	0.1624	0.0872	0.2695	0.094
Mof_C 	C 	0.5749	0.6033	0.2653	-0.272
Mof_C 	C 	0.4527	0.8165	0.4949	-0.19
Mof_C 	C 	0.5472	0.1888	0.7693	-0.116
Mof_C 	C 	-9.33798e-33	0.1376	0.3595	0.104
Mof_C 	C 	0.5	0.6405	0.8624	0.318
Mof_C 	C 	0.955	0.541	0.2175	0.17
Mof_C 	C 	0.3998	0.914	0.7169	1.429
Mof_C 	C 	0.7054	0.7319	0.8917	-0.156
Mof_C 	C 	0.4528	0.5805	0.8112	-0.116
Mof_C 	C 	0.4508	0.8192	0.9556	-0.069
Mof_C 	C 	0.5898	0.3243	0.3647	0.299
Mof_C 	C 	0.2274	0.1634	0.8609	0.042
Mof_C 	C 	0.1605	0.2153	0.8784	0.074
Mof_C 	C 	0.6605	0.6631	0.8784	0.076
Mof_C 	C 	0.0472	0.2307	0.8112	-0.517
Mof_C 	C 	0.955	0.6765	0.459	0.17
Mof_C 	C 	0.8993	0.5368	0.3244	-2.705
Mof_C 	C 	0.8684	0.9487	0.2265	-0.127
Mof_C 	C 	0.6421	0.5934	0.2142	-2.366
Mof_C 	C 	0.3793	0.7609	0.3387	1.832
Mof_C 	C 	0.4102	0.3243	0.3647	0.3
Mof_C 	C 	0.5	0.4852	0.321	0.06
Mof_C 	C 	0.3347	0.7944	0.0368	-3.781
Mof_C 	C 	0.5898	0.6353	0.9596	0.286
Mof_C 	C 	0.1605	0.1216	0.3369	0.074
Mof_C 	C 	0.6653	0.2424	0.2056	-3.834
Mof_C 	C 	0.4509	0.1911	0.3929	-0.106
Mof_C 	C 	0.8803	0.7783	0.6874	-4.041
Mof_C 	C 	0.367	0.5724	0.9096	-0.548
Mof_C 	C 	0.3722	0.8116	0.0512	3.773
Mof_C 	C 	0.1059	0.579	0.6071	-0.29
Mof_C 	C 	0.8395	0.2153	0.8784	0.078
Mof_C 	C 	0.1197	0.3126	0.0909	-3.986
Mof_C 	C 	0.5941	0.2765	0.2571	0.392
Mof_C 	C 	0.5474	0.8903	0.5724	-0.131
Mof_C 	C 	0.3793	0.6613	0.4222	1.832
Mof_C 	C 	0.1059	0.3929	0.9719	-0.317
Mof_C 	C 	0.6624	0.7305	0.9128	0.094
Mof_C 	C 	0.8941	0.0281	0.421	-0.339
Mof_C 	C 	0.9527	0.6784	0.4949	-0.077
Mof_C 	C 	0.8115	0.2824	0.0417	-0.359
Mof_C 	C 	0.0941	0.9806	0.2571	0.392
Mof_C 	C 	0.867	0.3372	0.9096	-0.617
Mof_C 	C 	0.7946	0.7319	0.8402	-0.165
Mof_C 	C 	0.9509	0.8043	0.8872	-0.814
Mof_C 	C 	0.7054	0.1083	0.8402	-0.156
Mof_C 	C 	0.5491	0.8043	0.9171	-0.047
Mof_C 	C 	0.9527	0.8165	0.3216	-0.078
Mof_C 	C 	0.6197	0.9091	0.6874	-4.043
Mof_C 	C 	0.2274	0.1391	0.3025	0.042
Mof_C 	C 	0.1421	0.5934	0.3792	-2.266
Mof_C 	C 	0.4526	0.4276	0.3179	-0.131
Mof_C 	C 	0.4509	0.1128	0.1957	-0.046
Mof_C 	C 	0.9509	0.1128	0.9171	-0.811
Mof_C 	C 	0.4059	0.7429	0.0194	0.39
Mof_C 	C 	0.6059	0.579	0.9719	-0.277
Mof_C 	C 	0.3347	0.2424	0.2056	-3.834
Mof_C 	C 	0.8204	0.0626	0.3954	-0.647
Mof_C 	C 	0.4251	0.7347	0.338	-0.289
Mof_C 	C 	0.4544	0.3909	0.315	0.055
Mof_C 	C 	0.3735	0.0478	0.6483	0.206
Mof_C 	C 	0.3993	0.7876	0.3244	-2.43
Mof_C 	C 	0.1885	0.7593	0.7176	-0.345
Mof_C 	C 	0.5	0.606	0.819	0.163
Mof_C 	C 	-1.8676e-32	0.4852	0.1642	-0.043
Mof_C 	C 	0.9544	0.3909	0.0759	0.118
Mof_C 	C 	0.9102	0.3243	0.9596	0.271
Mof_C 	C 	0.3395	0.6631	0.8784	0.076
Mof_C 	C 	-0	0.7971	0.8628	0.55
Mof_C 	C 	0.6059	0.0281	0.6071	-0.311
Mof_C 	C 	-3.11266e-33	0.6804	0.5533	-0.101
Mof_C 	C 	0.045	0.541	0.2175	0.058
Mof_C 	C 	0.295	0.1934	0.338	-0.137
Mof_C 	C 	0.9251	0.662	0.2653	-0.387
Mof_C 	C 	0.4527	0.5051	0.3216	-0.19
Mof_C 	C 	0.9544	0.9241	0.315	0.117
Mof_C 	C 	0.5473	0.6784	0.1835	-0.189
Mof_C 	C 	0.668	0.9343	0.6867	3.262
Mof_C 	C 	0.6885	0.9583	0.7176	-0.336
Mof_C 	C 	0.1016	0.3581	0.921	0.292
Mof_C 	C 	0.3998	0.8029	0.086	1.404
Mof_C 	C 	0.205	0.1934	0.8554	-0.142
Mof_C 	C 	0.5	0.7556	0.9294	0.325
Mof_C 	C 	0.6016	0.079	0.6419	0.244
Mof_C 	C 	0.3347	0.9632	0.7576	-3.834
Mof_C 	C 	0.705	0.1934	0.338	-0.137
Mof_C 	C 	-1.24506e-32	0.7556	0.8262	0.049
Mof_C 	C 	0.5898	0.0404	0.6757	0.299
Mof_C 	C 	0.045	0.7825	0.3235	0.059
Mof_C 	C 	0.3193	0.0302	0.6467	0.255
Mof_C 	C 	0.1605	0.6631	0.7847	0.074
Mof_C 	C 	0.6278	0.9488	0.7604	3.831
Mof_C 	C 	0.165	0.7368	0.4242	-2.274
Mof_C 	C 	0.3735	0.3517	0.3995	0.206
Mof_C 	C 	0.665	0.7368	0.3126	-2.368
Mof_C 	C 	0.1796	0.3328	0.9374	-0.65
Mof_C 	C 	0.205	0.1446	0.338	-0.142
Mof_C 	C 	0.0492	0.8192	0.8636	-1.153
Mof_C 	C 	0.5472	0.2307	0.4195	-0.116
Mof_C 	C 	0.8376	0.1823	0.9128	0.098
Mof_C 	C 	0.6807	0.3533	0.3835	0.253
Mof_C 	C 	0.6347	0.5978	0.9882	-0.366
Mof_C 	C 	0.835	0.7368	0.4242	-2.671
Mof_C 	C 	0.0749	0.662	0.2653	-0.254
Mof_C 	C 	0.1796	0.0626	0.3954	-0.543
Mof_C 	C 	0.7726	0.1634	0.8609	0.043
Mof_C 	C 	0.6316	0.9487	0.7222	-0.148
Mof_C 	C 	-6.22532e-33	0.1512	0.9781	0.869
Mof_C 	C 	0.3803	0.7783	0.0909	-3.987
Mof_C 	C 	0.1347	0.5978	0.6096	-0.285
Mof_C 	C 	0.7274	0.1391	0.8366	0.038
Mof_C 	C 	0.8993	0.7876	0.4632	-2.705
Mof_C 	C 	0.133	0.3372	0.9096	-0.499
Mof_C 	C 	0.1278	0.2396	0.0512	3.798
Mof_C 	C 	0.5	0.0219	0.8488	-0.395
Mof_C 	C 	0.4059	0.2765	0.2571	0.392
Mof_C 	C 	0.1007	0.6756	0.2124	-2.241
Mof_C 	C 	0.6007	0.7876	0.3244	-2.379
Mof_C 	C 	0.0491	0.1911	0.7982	-0.631
Mof_C 	C 	0.6807	0.6165	0.9698	0.185
Mof_C 	C 	-3.73519e-32	0.213	0.819	0.359
Mof_C 	C 	0.4102	0.0404	0.6757	0.3
Mof_C 	C 	0.9508	0.1364	0.9556	-0.998
Mof_C 	C 	0.9059	0.7429	0.7235	0.379
Mof_C 	C 	0.6278	0.8116	0.0512	3.771
Mof_C 	C 	0.8653	0.3904	0.9882	-0.403
Mof_C 	C 	-1.24506e-32	0.1738	0.9294	0.05
Mof_C 	C 	0.1007	0.7876	0.4632	-2.245
Mof_C 	C 	0.6002	0.2831	0.1971	1.43
Mof_C 	C 	0.867	0.5724	0.6628	-0.556
Mof_C 	C 	0.6347	0.0118	0.6096	-0.313
Mof_C 	C 	0.3684	0.7735	0.0513	-0.143
Mof_C 	C 	0.0473	0.5051	0.1835	-0.169
Mof_C 	C 	0.1885	0.2824	0.0417	-0.345
Mof_C 	C 	0.5941	0.9806	0.7235	0.392
Mof_C 	C 	0.6624	0.1823	0.2695	0.095
Mof_C 	C 	0.832	0.7524	0.6867	3.263
Mof_C 	C 	0.6007	0.5368	0.2124	-2.375
Mof_C 	C 	0.3993	0.6756	0.4632	-2.43
Mof_C 	C 	0.5	0.7938	0.8944	-0.47
Mof_C 	C 	0.3115	0.2824	0.2407	-0.338
Mof_C 	C 	0.8722	0.8116	0.7604	3.827
Mof_C 	C 	0.5	0.2511	0.4326	-0.293
Mof_C 	C 	0.3993	0.5368	0.2124	-2.429
Mof_C 	C 	-3.11266e-33	0.181	0.394	0.36
Mof_C 	C 	0.6624	0.0872	0.8177	0.095
Mof_C 	C 	0.1807	0.0302	0.3835	0.198
Mof_C 	C 	0.6796	0.0626	0.6672	-0.588
Mof_C 	C 	0.5	0.6219	0.7915	-0.312
Mof_C 	C 	0.633	0.0904	0.6628	-0.489
Mof_C 	C 	0.8347	0.9632	0.2056	-3.83
Mof_C 	C 	-6.22532e-33	0.606	0.787	0.36
Mof_C 	C 	0.1807	0.6165	0.6467	0.198
Mof_C 	C 	0.1207	0.6613	0.2391	1.694
Mof_C 	C 	0.9527	0.5051	0.1835	-0.077
Mof_C 	C 	0.3376	0.1823	0.2695	0.094
Mof_C 	C 	0.2946	0.7319	0.8917	-0.155
Mof_C 	C 	0.3684	0.2778	0.2265	-0.149
Mof_C 	C 	0.5	0.1372	0.2029	0.166
Mof_C 	C 	6.22532e-33	0.6219	0.8304	-0.112
Mof_C 	C 	0.1265	0.6005	0.6483	0.194
Mof_C 	C 	0.5	0.8358	0.5148	0.06
Mof_C 	C 	0.5	0.8729	0.5533	0.024
Mof_C 	C 	0.3984	0.079	0.6419	0.245
Mof_C 	C 	-1.24506e-32	0.8358	0.321	-0.042
Mof_C 	C 	0.5	0.213	0.394	0.163
Mof_C 	C 	0.5941	0.7429	0.0194	0.39
Mof_C 	C 	0.8735	0.3517	0.9522	0.269
Mof_C 	C 	-6.22532e-33	0.5674	0.7489	0.03
Mof_C 	C 	0.5	0.181	0.787	0.163
Mof_C 	C 	0.1885	0.9583	0.2407	-0.345
Mof_C 	C 	0.1197	0.9091	0.2217	-4.007
Mof_C 	C 	0.6197	0.7783	0.0909	-3.987
Mof_C 	C 	0.4508	0.1364	0.1808	-0.069
Mof_C 	C 	0.5	0.1056	0.8994	-0.468
Mof_C 	C 	0.6207	0.5778	0.2391	1.783
Mof_C 	C 	0.1278	0.8116	0.7604	3.82
Mof_C 	C 	-3.11266e-33	0.0219	0.1731	0.873
Mof_C 	C 	0.1278	0.9488	0.1884	3.82
Mof_C 	C 	-3.11266e-32	0.1372	0.9343	0.549
Mof_C 	C 	0.3579	0.5934	0.2142	-2.425
Mof_C 	C 	0.8984	0.5629	0.6419	0.301
Mof_C 	C 	0.8579	0.6208	0.2142	-2.674
Mof_C 	C 	0.7946	0.1083	0.2681	-0.165
Mof_C 	C 	0.668	0.3133	0.2476	3.262
Mof_C 	C 	0.6278	0.2396	0.1884	3.83
Mof_C 	C 	0.1624	0.7305	0.8177	0.094
Mof_C 	C 	0.1316	0.7735	0.7222	-0.158
Mof_C 	C 	0.1002	0.2831	0.086	1.412
Mof_C 	C 	0.8793	0.7609	0.4222	2.051
Mof_C 	C 	0.3941	0.0281	0.6071	-0.31
Mof_C 	C 	0.3204	0.3328	0.3954	-0.587
Mof_C 	C 	-1.8676e-32	0.6405	0.7781	0.104
Mof_C 	C 	0.8803	0.9091	0.2217	-4.041
Mof_C 	C 	0.5	0.2085	0.8304	-0.312
Mof_C 	C 	0.8579	0.7858	0.4066	-2.679
Mof_C 	C 	0.9526	0.6821	0.5724	0.005
Mof_C 	C 	0.955	0.7825	0.3235	0.17
Mof_C 	C 	0.8204	0.3328	0.9374	-0.661
Mof_C 	C 	0.3193	0.3533	0.3835	0.255
Mof_C 	C 	0.3376	0.7305	0.9128	0.094
Mof_C 	C 	0.9526	0.4276	0.1097	0.005
Mof_C 	C 	0.2054	0.1083	0.2681	-0.163
Mof_C 	C 	0.1059	0.0281	0.421	-0.29
Mof_C 	C 	0.633	0.5724	0.9096	-0.549
Mof_C 	C 	0.0898	0.3243	0.9596	0.292
Mof_C 	C 	0.4102	0.6353	0.9596	0.287
Mof_C 	C 	0.7726	0.6975	0.8366	0.044
Mof_C 	C 	-1.8676e-32	0.1815	0.4326	0.03
Mof_C 	C 	0.3984	0.5629	0.921	0.268
Mof_C 	C 	0.7274	0.6975	0.8609	0.037
Mof_C 	C 	0.9509	0.0829	0.1957	-0.813
Mof_C 	C 	0.0898	0.0404	0.3647	0.297
Mof_C 	C 	0.6316	0.2778	0.2265	-0.148
Mof_C 	C 	-3.11266e-32	0.8269	0.8488	0.874
Mof_C 	C 	0.3193	0.6165	0.9698	0.187
Mof_C 	C 	0.9251	0.6033	0.338	-0.389
Mof_C 	C 	0.665	0.5758	0.2632	-2.364
Mof_C 	C 	0.3735	0.6005	0.9522	0.242
Mof_C 	C 	0.5456	0.685	0.0759	0.055
Mof_C 	C 	0.8395	0.1216	0.3369	0.078
Mof_C 	C 	0.4528	0.1888	0.7693	-0.116
Mof_C 	C 	0.205	0.662	0.8066	-0.142
Mof_C 	C 	0.5456	0.3909	0.315	0.055
Mof_C 	C 	0.0474	0.6821	0.5724	-0.091
Mof_C 	C 	0.8984	0.079	0.4371	0.301
Mof_C 	C 	0.835	0.5758	0.3126	-2.671
Mof_C 	C 	0.0456	0.3909	0.0759	0.009
Mof_C 	C 	0.3722	0.9488	0.7604	3.832
Mof_C 	C 	0.5491	0.2018	0.8089	-0.106
Mof_C 	C 	0.8115	0.9583	0.2407	-0.362
Mof_C 	C 	0.9102	0.6353	0.6757	0.284
Mof_C 	C 	0.5	0.0657	0.8628	0.166
Mof_C 	C 	0.6316	0.7735	0.0513	-0.143
Mof_C 	C 	0.9528	0.2307	0.8112	-0.335
Mof_C 	C 	0.6796	0.6046	0.9374	-0.602
Mof_C 	C 	-6.22532e-33	0.1696	0.7915	-0.112
Mof_C 	C 	0.5	0.1738	0.2444	0.325
Mof_C 	C 	0.3984	0.3581	0.4371	0.245
Mof_C 	C 	0.8653	0.5978	0.6096	-0.35
Mof_C 	C 	0.0474	0.8903	0.3179	-0.091
Mof_C 	C 	0.705	0.662	0.8554	-0.137
Mof_C 	C 	0.5	0.8269	0.9781	-0.395
Mof_C 	C 	0.335	0.6874	0.4242	-2.429
Mof_C 	C 	-2.49013e-32	0.679	0.5148	-0.043
Mof_C 	C 	0.1316	0.2778	0.0513	-0.156
Mof_C 	C 	0.0473	0.6784	0.4949	-0.169
Mof_C 	C 	0.6807	0.0302	0.6467	0.253
Mof_C 	C 	-6.22532e-33	0.2511	0.8185	0.029
Mof_C 	C 	0.0456	0.9241	0.315	0.009
Mof_C 	C 	0.5492	0.8192	0.9556	-0.07
Mof_C 	C 	0.1207	0.5778	0.3387	1.696
Mof_C 	C 	0.2726	0.1634	0.3025	0.038
Mof_C 	C 	0.332	0.7524	0.0657	3.212
Mof_C 	C 	0.0749	0.7347	0.3967	-0.255
Mof_C 	C 	0.1265	0.3517	0.9522	0.206
Mof_C 	C 	0.8193	0.3533	0.9698	0.252
Mof_C 	C 	0.7274	0.1634	0.3025	0.038
Mof_C 	C 	0.2054	0.7319	0.8402	-0.163
Mof_C 	C 	0.168	0.7524	0.6867	3.253
Mof_C 	C 	0.7726	0.1391	0.3025	0.043
Mof_C 	C 	0.5491	0.0829	0.8872	-0.047
Mof_C 	C 	0.455	0.541	0.3235	0.095
Mof_C 	C 	0.0472	0.1888	0.4195	-0.518
Mof_C 	C 	0.1347	0.3904	0.9882	-0.312
Mof_C 	C 	0.9509	0.2018	0.3929	-0.406
Mof_C 	C 	0.165	0.5758	0.3126	-2.273
Mof_C 	C 	0.6653	0.9632	0.7576	-3.835
Mof_C 	C 	0.5	0.7971	0.9343	0.166
Mof_C 	C 	0.0941	0.7429	0.7235	0.392
Mof_C 	C 	0.1807	0.3533	0.9698	0.287
Mof_C 	C 	0.9059	0.2765	0.0194	0.378
Mof_C 	C 	0.4544	0.685	0.0759	0.055
Mof_C 	C 	0.6605	0.1216	0.7847	0.077
Mof_C 	C 	0.8193	0.6165	0.6467	0.32
Mof_C 	C 	0.6347	0.3904	0.4022	-0.313
Mof_C 	C 	0.8941	0.579	0.6071	-0.34
Mof_C 	C 	0.0749	0.6033	0.338	-0.255
Mof_C 	C 	0.8722	0.9488	0.1884	3.827
Mof_C 	C 	0.0898	0.6353	0.6757	0.297
Mof_C 	C 	0.3653	0.5978	0.9882	-0.365
Mof_C 	C 	0.5	0.679	0.1642	0.06
Mof_C 	C 	0.7054	0.1598	0.2681	-0.156
Mof_C 	C 	0.4528	0.2307	0.4195	-0.116
Mof_C 	C 	0.5456	0.9241	0.6091	0.055
Mof_C 	C 	0.9059	0.9806	0.2571	0.379
Mof_N 	N 	0.5	0.5591	0.3248	-0.218
Mof_N 	N 	0.3607	0.6973	0.9065	-0.187
Mof_N 	N 	0.5	0.3726	0.3141	-0.174
Mof_N 	N 	0.6393	0.2092	0.3027	-0.187
Mof_N 	N 	4.66899e-33	0.5591	0.2343	-0.274
Mof_N 	N 	0.5	0.7657	0.4409	-0.218
Mof_N 	N 	0.3607	0.2092	0.3027	-0.187
Mof_N 	N 	-3.11266e-33	0.7657	0.3248	-0.274
Mof_N 	N 	-6.22532e-33	0.6752	0.4409	-0.274
Mof_N 	N 	-1.55633e-33	0.3726	0.0585	-0.225
Mof_N 	N 	0.1393	0.0935	0.3027	-0.189
Mof_N 	N 	0.5	0.9415	0.6274	-0.174
Mof_N 	N 	0.5	0.6859	0.0585	-0.174
Mof_N 	N 	-3.11266e-33	0.9415	0.3141	-0.225
Mof_N 	N 	0.1393	0.6973	0.7908	-0.189
Mof_N 	N 	0.6393	0.0935	0.7908	-0.187
Mof_N 	N 	-0	0.6859	0.6274	-0.225
Mof_N 	N 	0.5	0.6752	0.2343	-0.218
Mof_N 	N 	0.3607	0.0935	0.7908	-0.187
Mof_N 	N 	0.8607	0.6973	0.7908	-0.196
Mof_N 	N 	0.8607	0.0935	0.3027	-0.196
Mof_N 	N 	0.6393	0.6973	0.9065	-0.187
Mof_N 	N 	0.8607	0.2092	0.9065	-0.196
Mof_N 	N 	0.1393	0.2092	0.9065	-0.189
Mof_O 	O 	0.9424	0.6292	0.3705	-0.152
Mof_O 	O 	0.9429	0.695	0.2883	-0.162
Mof_O 	O 	0.5552	0.647	0.9854	-0.382
Mof_O 	O 	0.9441	0.7311	0.6993	-0.344
Mof_O 	O 	0.0571	0.7117	0.4067	-0.257
Mof_O 	O 	1.8676e-32	0.6929	0.7352	-0.611
Mof_O 	O 	0.0441	0.1216	0.346	-0.345
Mof_O 	O 	0.5447	0.0727	0.8138	-0.387
Mof_O 	O 	0.0559	0.3007	0.0318	-0.415
Mof_O 	O 	0.4559	0.654	0.8784	-0.388
Mof_O 	O 	0.9424	0.7413	0.3708	-0.152
Mof_O 	O 	0.9441	0.3007	0.0318	-0.344
Mof_O 	O 	0.4448	0.3384	0.353	-0.386
Mof_O 	O 	0.3982	0.0159	0.7494	-0.413
Mof_O 	O 	-1.24506e-32	0.66667	0.33334	-0.507
Mof_O 	O 	-9.33798e-33	0.0423	0.3071	-0.611
Mof_O 	O 	0.0552	0.0146	0.353	-0.389
Mof_O 	O 	0.5576	0.7413	0.3705	-0.245
Mof_O 	O 	0.9448	0.647	0.6616	-0.317
Mof_O 	O 	0.0447	0.0727	0.2589	-0.319
Mof_O 	O 	0.8982	0.2506	0.9841	-0.4
Mof_O 	O 	0.5441	0.2244	0.346	-0.388
Mof_O 	O 	0.0447	0.7411	0.8138	-0.319
Mof_O 	O 	0.0992	0.6496	0.7126	-0.372
Mof_O 	O 	0.9553	0.1862	0.9273	-0.243
Mof_O 	O 	0.0992	0.063	0.3504	-0.372
Mof_O 	O 	0.0576	0.6292	0.3705	-0.249
Mof_O 	O 	0.6018	0.7335	0.9841	-0.413
Mof_O 	O 	0.9553	0.0727	0.2589	-0.243
Mof_O 	O 	0.0576	0.7413	0.3708	-0.248
Mof_O 	O 	0.1018	0.7335	0.7494	-0.41
Mof_O 	O 	0.5571	0.7117	0.305	-0.255
Mof_O 	O 	0.1018	0.0159	0.2665	-0.41
Mof_O 	O 	0.4008	0.6496	0.937	-0.371
Mof_O 	O 	0.9559	0.2244	0.8784	-0.265
Mof_O 	O 	0.8982	0.7335	0.7494	-0.4
Mof_O 	O 	0.4559	0.1216	0.7756	-0.388
Mof_O 	O 	0.5	0.0423	0.7352	-0.569
Mof_O 	O 	0.6018	0.0159	0.7494	-0.413
Mof_O 	O 	0.9008	0.063	0.3504	-0.36
Mof_O 	O 	0.3982	0.2506	0.2665	-0.413
Mof_O 	O 	0.9008	0.6496	0.7126	-0.36
Mof_O 	O 	0.5	0.6929	0.9577	-0.569
Mof_O 	O 	0.9553	0.7411	0.8138	-0.243
Mof_O 	O 	0.5576	0.6295	0.3708	-0.245
Mof_O 	O 	0.3982	0.7335	0.9841	-0.413
Mof_O 	O 	0.5559	0.9682	0.6993	-0.415
Mof_O 	O 	0.0571	0.5933	0.305	-0.257
Mof_O 	O 	0.9424	0.6295	0.2587	-0.153
Mof_O 	O 	0.4553	0.1862	0.2589	-0.387
Mof_O 	O 	0.5559	0.3007	0.2689	-0.415
Mof_O 	O 	0.5992	0.6496	0.937	-0.371
Mof_O 	O 	0.0441	0.654	0.7756	-0.345
Mof_O 	O 	0.9429	0.5933	0.305	-0.161
Mof_O 	O 	0.5447	0.1862	0.2589	-0.387
Mof_O 	O 	0.5576	0.6292	0.2587	-0.246
Mof_O 	O 	0.5	0.2648	0.3071	-0.569
Mof_O 	O 	0.4448	0.0146	0.6616	-0.386
Mof_O 	O 	0.9559	0.654	0.7756	-0.265
Mof_O 	O 	-3.73519e-32	0.2648	0.9577	-0.61
Mof_O 	O 	0.4008	0.2874	0.3504	-0.373
Mof_O 	O 	0.5571	0.5933	0.2883	-0.256
Mof_O 	O 	0.5571	0.695	0.4067	-0.255
Mof_O 	O 	0.4429	0.5933	0.2883	-0.251
Mof_O 	O 	0.0559	0.9682	0.2689	-0.415
Mof_O 	O 	0.4441	0.7311	0.0318	-0.415
Mof_O 	O 	0.4441	0.9682	0.6993	-0.415
Mof_O 	O 	0.5	0.66667	0.33334	-0.515
Mof_O 	O 	0.9559	0.1216	0.346	-0.265
Mof_O 	O 	0.0559	0.7311	0.6993	-0.415
Mof_O 	O 	0.4424	0.6295	0.3708	-0.241
Mof_O 	O 	0.4448	0.647	0.9854	-0.382
Mof_O 	O 	0.0552	0.647	0.6616	-0.389
Mof_O 	O 	0.0441	0.2244	0.8784	-0.345
Mof_O 	O 	0.9448	0.3384	0.9854	-0.314
Mof_O 	O 	0.0571	0.695	0.2883	-0.257
Mof_O 	O 	0.5441	0.1216	0.7756	-0.388
Mof_O 	O 	0.4441	0.3007	0.2689	-0.415
Mof_O 	O 	0.0576	0.6295	0.2587	-0.249
Mof_O 	O 	0.4424	0.6292	0.2587	-0.241
Mof_O 	O 	0.5992	0.2874	0.3504	-0.373
Mof_O 	O 	0.0447	0.1862	0.9273	-0.319
Mof_O 	O 	0.5552	0.3384	0.353	-0.386
Mof_O 	O 	0.4429	0.695	0.4067	-0.251
Mof_O 	O 	0.0552	0.3384	0.9854	-0.388
Mof_O 	O 	0.4429	0.7117	0.305	-0.251
Mof_O 	O 	0.8982	0.0159	0.2665	-0.4
Mof_O 	O 	0.4424	0.7413	0.3705	-0.241
Mof_O 	O 	0.5552	0.0146	0.6616	-0.386
Mof_O 	O 	0.1018	0.2506	0.9841	-0.41
Mof_O 	O 	0.6018	0.2506	0.2665	-0.413
Mof_O 	O 	0.5559	0.7311	0.0318	-0.415
Mof_O 	O 	0.0992	0.2874	0.937	-0.371
Mof_O 	O 	0.9441	0.9682	0.2689	-0.345
Mof_O 	O 	0.5992	0.063	0.7126	-0.373
Mof_O 	O 	0.9008	0.2874	0.937	-0.358
Mof_O 	O 	0.5441	0.654	0.8784	-0.388
Mof_O 	O 	0.4008	0.063	0.7126	-0.373
Mof_O 	O 	0.4553	0.0727	0.8138	-0.387
Mof_O 	O 	0.9429	0.7117	0.4067	-0.161
Mof_O 	O 	0.5447	0.7411	0.9273	-0.387
Mof_O 	O 	0.4553	0.7411	0.9273	-0.387
Mof_O 	O 	0.9448	0.0146	0.353	-0.317
Mof_O 	O 	0.4559	0.2244	0.346	-0.388
_end
