data_functionalizedCrystal
_audit_creation_method	'EQeq! by Chris Wilmer'
_symmetry_space_group_name_H-M	'P1'
_symmetry_Int_Tables_number	1
_symmetry_cell_setting	triclinic
loop_
_symmetry_equiv_pos_as_xyz
  x,y,z
_cell_length_a	26.869
_cell_length_b	26.869
_cell_length_c	26.869
_cell_angle_alpha	90
_cell_angle_beta	90
_cell_angle_gamma	90
loop_
_atom_site_label
_atom_site_type_symbol
_atom_site_fract_x
_atom_site_fract_y
_atom_site_fract_z
_atom_site_charge
Mof_C 	C 	0.68221	0.24146	0.4863	-0.011
Mof_C 	C 	0.64508	0.20516	0.4862	0.036
Mof_C 	C 	0.5921	0.2262	0.4657	-0.001
Mof_C 	C 	0.68221	0.74146	0.9863	0.215
Mof_C 	C 	0.64508	0.70516	0.9862	0.187
Mof_C 	C 	0.5921	0.7262	0.9657	-0.002
Mof_C 	C 	0.18221	0.24146	0.9863	0.23
Mof_C 	C 	0.14508	0.20516	0.9862	0.201
Mof_C 	C 	0.0921	0.2262	0.9657	-0.005
Mof_C 	C 	0.18221	0.74146	0.4863	-0.01
Mof_C 	C 	0.14508	0.70516	0.4862	0.038
Mof_C 	C 	0.0921	0.7262	0.4657	-0.003
Mof_C 	C 	0.31779	0.75854	0.4863	-0.011
Mof_C 	C 	0.35492	0.79484	0.4862	0.036
Mof_C 	C 	0.4079	0.7738	0.4657	-0.001
Mof_C 	C 	0.31779	0.25854	0.9863	0.226
Mof_C 	C 	0.35492	0.29484	0.9862	0.199
Mof_C 	C 	0.4079	0.2738	0.9657	-0.003
Mof_C 	C 	0.81779	0.75854	0.9863	0.207
Mof_C 	C 	0.85492	0.79484	0.9862	0.185
Mof_C 	C 	0.9079	0.7738	0.9657	0.003
Mof_C 	C 	0.81779	0.25854	0.4863	-0.011
Mof_C 	C 	0.85492	0.29484	0.4862	0.035
Mof_C 	C 	0.9079	0.2738	0.4657	0.006
Mof_C 	C 	0.31779	0.24146	0.5137	-0.01
Mof_C 	C 	0.35492	0.20516	0.5138	0.034
Mof_C 	C 	0.4079	0.2262	0.5343	0
Mof_C 	C 	0.31779	0.74146	0.0137	-0.219
Mof_C 	C 	0.35492	0.70516	0.0138	-0.09
Mof_C 	C 	0.4079	0.7262	0.0343	0.005
Mof_C 	C 	0.81779	0.24146	0.0137	-0.216
Mof_C 	C 	0.85492	0.20516	0.0138	-0.092
Mof_C 	C 	0.9079	0.2262	0.0343	0.013
Mof_C 	C 	0.81779	0.74146	0.5137	-0.011
Mof_C 	C 	0.85492	0.70516	0.5138	0.032
Mof_C 	C 	0.9079	0.7262	0.5343	0.007
Mof_C 	C 	0.68221	0.75854	0.5137	-0.012
Mof_C 	C 	0.64508	0.79484	0.5138	0.033
Mof_C 	C 	0.5921	0.7738	0.5343	-0.002
Mof_C 	C 	0.68221	0.25854	0.0137	-0.222
Mof_C 	C 	0.64508	0.29484	0.0138	-0.092
Mof_C 	C 	0.5921	0.2738	0.0343	0.003
Mof_C 	C 	0.18221	0.75854	0.0137	-0.219
Mof_C 	C 	0.14508	0.79484	0.0138	-0.092
Mof_C 	C 	0.0921	0.7738	0.0343	0
Mof_C 	C 	0.18221	0.25854	0.5137	-0.011
Mof_C 	C 	0.14508	0.29484	0.5138	0.035
Mof_C 	C 	0.0921	0.2738	0.5343	-0.005
Mof_C 	C 	0.4863	0.68221	0.24146	-0.01
Mof_C 	C 	0.4862	0.64508	0.20516	0.037
Mof_C 	C 	0.4657	0.5921	0.2262	-0
Mof_C 	C 	0.4863	0.18221	0.74146	-0.01
Mof_C 	C 	0.4862	0.14508	0.70516	0.038
Mof_C 	C 	0.4657	0.0921	0.7262	-0.003
Mof_C 	C 	0.9863	0.68221	0.74146	0.216
Mof_C 	C 	0.9862	0.64508	0.70516	0.188
Mof_C 	C 	0.9657	0.5921	0.7262	-0.002
Mof_C 	C 	0.9863	0.18221	0.24146	0.23
Mof_C 	C 	0.9862	0.14508	0.20516	0.201
Mof_C 	C 	0.9657	0.0921	0.2262	-0.005
Mof_C 	C 	0.4863	0.31779	0.75854	-0.011
Mof_C 	C 	0.4862	0.35492	0.79484	0.036
Mof_C 	C 	0.4657	0.4079	0.7738	-0.001
Mof_C 	C 	0.4863	0.81779	0.25854	-0.011
Mof_C 	C 	0.4862	0.85492	0.29484	0.035
Mof_C 	C 	0.4657	0.9079	0.2738	0.006
Mof_C 	C 	0.9863	0.31779	0.25854	0.226
Mof_C 	C 	0.9862	0.35492	0.29484	0.199
Mof_C 	C 	0.9657	0.4079	0.2738	-0.003
Mof_C 	C 	0.9863	0.81779	0.75854	0.207
Mof_C 	C 	0.9862	0.85492	0.79484	0.185
Mof_C 	C 	0.9657	0.9079	0.7738	0.003
Mof_C 	C 	0.5137	0.31779	0.24146	-0.01
Mof_C 	C 	0.5138	0.35492	0.20516	0.034
Mof_C 	C 	0.5343	0.4079	0.2262	0
Mof_C 	C 	0.5137	0.81779	0.74146	-0.011
Mof_C 	C 	0.5138	0.85492	0.70516	0.032
Mof_C 	C 	0.5343	0.9079	0.7262	0.007
Mof_C 	C 	0.0137	0.31779	0.74146	-0.219
Mof_C 	C 	0.0138	0.35492	0.70516	-0.09
Mof_C 	C 	0.0343	0.4079	0.7262	0.005
Mof_C 	C 	0.0137	0.81779	0.24146	-0.216
Mof_C 	C 	0.0138	0.85492	0.20516	-0.092
Mof_C 	C 	0.0343	0.9079	0.2262	0.013
Mof_C 	C 	0.5137	0.68221	0.75854	-0.012
Mof_C 	C 	0.5138	0.64508	0.79484	0.033
Mof_C 	C 	0.5343	0.5921	0.7738	-0.002
Mof_C 	C 	0.5137	0.18221	0.25854	-0.011
Mof_C 	C 	0.5138	0.14508	0.29484	0.035
Mof_C 	C 	0.5343	0.0921	0.2738	-0.005
Mof_C 	C 	0.0137	0.68221	0.25854	-0.222
Mof_C 	C 	0.0138	0.64508	0.29484	-0.092
Mof_C 	C 	0.0343	0.5921	0.2738	0.003
Mof_C 	C 	0.0137	0.18221	0.75854	-0.219
Mof_C 	C 	0.0138	0.14508	0.79484	-0.092
Mof_C 	C 	0.0343	0.0921	0.7738	0
Mof_C 	C 	0.24146	0.4863	0.68221	-0.01
Mof_C 	C 	0.20516	0.4862	0.64508	0.037
Mof_C 	C 	0.2262	0.4657	0.5921	-0
Mof_C 	C 	0.24146	0.9863	0.18221	0.23
Mof_C 	C 	0.20516	0.9862	0.14508	0.201
Mof_C 	C 	0.2262	0.9657	0.0921	-0.005
Mof_C 	C 	0.74146	0.4863	0.18221	-0.01
Mof_C 	C 	0.70516	0.4862	0.14508	0.038
Mof_C 	C 	0.7262	0.4657	0.0921	-0.003
Mof_C 	C 	0.74146	0.9863	0.68221	0.216
Mof_C 	C 	0.70516	0.9862	0.64508	0.188
Mof_C 	C 	0.7262	0.9657	0.5921	-0.002
Mof_C 	C 	0.75854	0.4863	0.31779	-0.011
Mof_C 	C 	0.79484	0.4862	0.35492	0.036
Mof_C 	C 	0.7738	0.4657	0.4079	-0.001
Mof_C 	C 	0.75854	0.9863	0.81779	0.207
Mof_C 	C 	0.79484	0.9862	0.85492	0.185
Mof_C 	C 	0.7738	0.9657	0.9079	0.003
Mof_C 	C 	0.25854	0.4863	0.81779	-0.011
Mof_C 	C 	0.29484	0.4862	0.85492	0.035
Mof_C 	C 	0.2738	0.4657	0.9079	0.006
Mof_C 	C 	0.25854	0.9863	0.31779	0.226
Mof_C 	C 	0.29484	0.9862	0.35492	0.199
Mof_C 	C 	0.2738	0.9657	0.4079	-0.003
Mof_C 	C 	0.24146	0.5137	0.31779	-0.01
Mof_C 	C 	0.20516	0.5138	0.35492	0.034
Mof_C 	C 	0.2262	0.5343	0.4079	0
Mof_C 	C 	0.24146	0.0137	0.81779	-0.216
Mof_C 	C 	0.20516	0.0138	0.85492	-0.092
Mof_C 	C 	0.2262	0.0343	0.9079	0.013
Mof_C 	C 	0.74146	0.5137	0.81779	-0.011
Mof_C 	C 	0.70516	0.5138	0.85492	0.032
Mof_C 	C 	0.7262	0.5343	0.9079	0.007
Mof_C 	C 	0.74146	0.0137	0.31779	-0.219
Mof_C 	C 	0.70516	0.0138	0.35492	-0.09
Mof_C 	C 	0.7262	0.0343	0.4079	0.005
Mof_C 	C 	0.75854	0.5137	0.68221	-0.012
Mof_C 	C 	0.79484	0.5138	0.64508	0.033
Mof_C 	C 	0.7738	0.5343	0.5921	-0.002
Mof_C 	C 	0.75854	0.0137	0.18221	-0.219
Mof_C 	C 	0.79484	0.0138	0.14508	-0.092
Mof_C 	C 	0.7738	0.0343	0.0921	0
Mof_C 	C 	0.25854	0.5137	0.18221	-0.011
Mof_C 	C 	0.29484	0.5138	0.14508	0.035
Mof_C 	C 	0.2738	0.5343	0.0921	-0.005
Mof_C 	C 	0.25854	0.0137	0.68221	-0.222
Mof_C 	C 	0.29484	0.0138	0.64508	-0.092
Mof_C 	C 	0.2738	0.0343	0.5921	0.003
Mof_C 	C 	0.24146	0.68221	0.5137	-0.011
Mof_C 	C 	0.20516	0.64508	0.5138	0.034
Mof_C 	C 	0.2262	0.5921	0.5343	-0
Mof_C 	C 	0.24146	0.18221	0.0137	-0.227
Mof_C 	C 	0.20516	0.14508	0.0138	-0.093
Mof_C 	C 	0.2262	0.0921	0.0343	0.002
Mof_C 	C 	0.74146	0.68221	0.0137	-0.217
Mof_C 	C 	0.70516	0.64508	0.0138	-0.087
Mof_C 	C 	0.7262	0.5921	0.0343	0.004
Mof_C 	C 	0.74146	0.18221	0.5137	-0.011
Mof_C 	C 	0.70516	0.14508	0.5138	0.035
Mof_C 	C 	0.7262	0.0921	0.5343	-0.003
Mof_C 	C 	0.75854	0.31779	0.5137	-0.011
Mof_C 	C 	0.79484	0.35492	0.5138	0.033
Mof_C 	C 	0.7738	0.4079	0.5343	-0.001
Mof_C 	C 	0.75854	0.81779	0.0137	-0.208
Mof_C 	C 	0.79484	0.85492	0.0138	-0.091
Mof_C 	C 	0.7738	0.9079	0.0343	0.011
Mof_C 	C 	0.25854	0.31779	0.0137	-0.224
Mof_C 	C 	0.29484	0.35492	0.0138	-0.096
Mof_C 	C 	0.2738	0.4079	0.0343	0.004
Mof_C 	C 	0.25854	0.81779	0.5137	-0.011
Mof_C 	C 	0.29484	0.85492	0.5138	0.032
Mof_C 	C 	0.2738	0.9079	0.5343	0.006
Mof_C 	C 	0.24146	0.31779	0.4863	-0.009
Mof_C 	C 	0.20516	0.35492	0.4862	0.037
Mof_C 	C 	0.2262	0.4079	0.4657	0
Mof_C 	C 	0.24146	0.81779	0.9863	0.218
Mof_C 	C 	0.20516	0.85492	0.9862	0.19
Mof_C 	C 	0.2262	0.9079	0.9657	0.005
Mof_C 	C 	0.74146	0.31779	0.9863	0.22
Mof_C 	C 	0.70516	0.35492	0.9862	0.192
Mof_C 	C 	0.7262	0.4079	0.9657	-0.002
Mof_C 	C 	0.74146	0.81779	0.4863	-0.011
Mof_C 	C 	0.70516	0.85492	0.4862	0.034
Mof_C 	C 	0.7262	0.9079	0.4657	0.007
Mof_C 	C 	0.75854	0.68221	0.4863	-0.011
Mof_C 	C 	0.79484	0.64508	0.4862	0.036
Mof_C 	C 	0.7738	0.5921	0.4657	-0.002
Mof_C 	C 	0.75854	0.18221	0.9863	0.219
Mof_C 	C 	0.79484	0.14508	0.9862	0.195
Mof_C 	C 	0.7738	0.0921	0.9657	-0.007
Mof_C 	C 	0.25854	0.68221	0.9863	0.222
Mof_C 	C 	0.29484	0.64508	0.9862	0.195
Mof_C 	C 	0.2738	0.5921	0.9657	-0.004
Mof_C 	C 	0.25854	0.18221	0.4863	-0.01
Mof_C 	C 	0.29484	0.14508	0.4862	0.039
Mof_C 	C 	0.2738	0.0921	0.4657	-0.005
Mof_C 	C 	0.68221	0.4863	0.75854	-0.011
Mof_C 	C 	0.64508	0.4862	0.79484	0.036
Mof_C 	C 	0.5921	0.4657	0.7738	-0.002
Mof_C 	C 	0.68221	0.9863	0.25854	0.222
Mof_C 	C 	0.64508	0.9862	0.29484	0.195
Mof_C 	C 	0.5921	0.9657	0.2738	-0.004
Mof_C 	C 	0.18221	0.4863	0.25854	-0.01
Mof_C 	C 	0.14508	0.4862	0.29484	0.039
Mof_C 	C 	0.0921	0.4657	0.2738	-0.005
Mof_C 	C 	0.18221	0.9863	0.75854	0.219
Mof_C 	C 	0.14508	0.9862	0.79484	0.195
Mof_C 	C 	0.0921	0.9657	0.7738	-0.007
Mof_C 	C 	0.31779	0.4863	0.24146	-0.009
Mof_C 	C 	0.35492	0.4862	0.20516	0.037
Mof_C 	C 	0.4079	0.4657	0.2262	0
Mof_C 	C 	0.31779	0.9863	0.74146	0.22
Mof_C 	C 	0.35492	0.9862	0.70516	0.192
Mof_C 	C 	0.4079	0.9657	0.7262	-0.002
Mof_C 	C 	0.81779	0.4863	0.74146	-0.011
Mof_C 	C 	0.85492	0.4862	0.70516	0.034
Mof_C 	C 	0.9079	0.4657	0.7262	0.007
Mof_C 	C 	0.81779	0.9863	0.24146	0.218
Mof_C 	C 	0.85492	0.9862	0.20516	0.19
Mof_C 	C 	0.9079	0.9657	0.2262	0.005
Mof_C 	C 	0.31779	0.5137	0.75854	-0.011
Mof_C 	C 	0.35492	0.5138	0.79484	0.033
Mof_C 	C 	0.4079	0.5343	0.7738	-0.001
Mof_C 	C 	0.31779	0.0137	0.25854	-0.224
Mof_C 	C 	0.35492	0.0138	0.29484	-0.096
Mof_C 	C 	0.4079	0.0343	0.2738	0.004
Mof_C 	C 	0.81779	0.5137	0.25854	-0.011
Mof_C 	C 	0.85492	0.5138	0.29484	0.032
Mof_C 	C 	0.9079	0.5343	0.2738	0.006
Mof_C 	C 	0.81779	0.0137	0.75854	-0.208
Mof_C 	C 	0.85492	0.0138	0.79484	-0.091
Mof_C 	C 	0.9079	0.0343	0.7738	0.011
Mof_C 	C 	0.68221	0.5137	0.24146	-0.011
Mof_C 	C 	0.64508	0.5138	0.20516	0.034
Mof_C 	C 	0.5921	0.5343	0.2262	-0
Mof_C 	C 	0.68221	0.0137	0.74146	-0.217
Mof_C 	C 	0.64508	0.0138	0.70516	-0.087
Mof_C 	C 	0.5921	0.0343	0.7262	0.004
Mof_C 	C 	0.18221	0.5137	0.74146	-0.011
Mof_C 	C 	0.14508	0.5138	0.70516	0.035
Mof_C 	C 	0.0921	0.5343	0.7262	-0.003
Mof_C 	C 	0.18221	0.0137	0.24146	-0.227
Mof_C 	C 	0.14508	0.0138	0.20516	-0.093
Mof_C 	C 	0.0921	0.0343	0.2262	0.002
Mof_C 	C 	0.4863	0.24146	0.31779	-0.009
Mof_C 	C 	0.4862	0.20516	0.35492	0.037
Mof_C 	C 	0.4657	0.2262	0.4079	0
Mof_C 	C 	0.4863	0.74146	0.81779	-0.011
Mof_C 	C 	0.4862	0.70516	0.85492	0.034
Mof_C 	C 	0.4657	0.7262	0.9079	0.007
Mof_C 	C 	0.9863	0.24146	0.81779	0.218
Mof_C 	C 	0.9862	0.20516	0.85492	0.19
Mof_C 	C 	0.9657	0.2262	0.9079	0.005
Mof_C 	C 	0.9863	0.74146	0.31779	0.22
Mof_C 	C 	0.9862	0.70516	0.35492	0.192
Mof_C 	C 	0.9657	0.7262	0.4079	-0.002
Mof_C 	C 	0.4863	0.75854	0.68221	-0.011
Mof_C 	C 	0.4862	0.79484	0.64508	0.036
Mof_C 	C 	0.4657	0.7738	0.5921	-0.002
Mof_C 	C 	0.4863	0.25854	0.18221	-0.01
Mof_C 	C 	0.4862	0.29484	0.14508	0.039
Mof_C 	C 	0.4657	0.2738	0.0921	-0.005
Mof_C 	C 	0.9863	0.75854	0.18221	0.219
Mof_C 	C 	0.9862	0.79484	0.14508	0.195
Mof_C 	C 	0.9657	0.7738	0.0921	-0.007
Mof_C 	C 	0.9863	0.25854	0.68221	0.222
Mof_C 	C 	0.9862	0.29484	0.64508	0.195
Mof_C 	C 	0.9657	0.2738	0.5921	-0.004
Mof_C 	C 	0.5137	0.24146	0.68221	-0.011
Mof_C 	C 	0.5138	0.20516	0.64508	0.034
Mof_C 	C 	0.5343	0.2262	0.5921	-0
Mof_C 	C 	0.5137	0.74146	0.18221	-0.011
Mof_C 	C 	0.5138	0.70516	0.14508	0.035
Mof_C 	C 	0.5343	0.7262	0.0921	-0.003
Mof_C 	C 	0.0137	0.24146	0.18221	-0.227
Mof_C 	C 	0.0138	0.20516	0.14508	-0.093
Mof_C 	C 	0.0343	0.2262	0.0921	0.002
Mof_C 	C 	0.0137	0.74146	0.68221	-0.217
Mof_C 	C 	0.0138	0.70516	0.64508	-0.087
Mof_C 	C 	0.0343	0.7262	0.5921	0.004
Mof_C 	C 	0.5137	0.75854	0.31779	-0.011
Mof_C 	C 	0.5138	0.79484	0.35492	0.033
Mof_C 	C 	0.5343	0.7738	0.4079	-0.001
Mof_C 	C 	0.5137	0.25854	0.81779	-0.011
Mof_C 	C 	0.5138	0.29484	0.85492	0.032
Mof_C 	C 	0.5343	0.2738	0.9079	0.006
Mof_C 	C 	0.0137	0.75854	0.81779	-0.208
Mof_C 	C 	0.0138	0.79484	0.85492	-0.091
Mof_C 	C 	0.0343	0.7738	0.9079	0.011
Mof_C 	C 	0.0137	0.25854	0.31779	-0.224
Mof_C 	C 	0.0138	0.29484	0.35492	-0.096
Mof_C 	C 	0.0343	0.2738	0.4079	0.004
Mof_C 	C 	0.31779	0.75854	0.5137	-0.011
Mof_C 	C 	0.35492	0.79484	0.5138	0.033
Mof_C 	C 	0.4079	0.7738	0.5343	-0.001
Mof_C 	C 	0.31779	0.25854	0.0137	-0.224
Mof_C 	C 	0.35492	0.29484	0.0138	-0.096
Mof_C 	C 	0.4079	0.2738	0.0343	0.004
Mof_C 	C 	0.81779	0.75854	0.0137	-0.208
Mof_C 	C 	0.85492	0.79484	0.0138	-0.091
Mof_C 	C 	0.9079	0.7738	0.0343	0.011
Mof_C 	C 	0.81779	0.25854	0.5137	-0.011
Mof_C 	C 	0.85492	0.29484	0.5138	0.032
Mof_C 	C 	0.9079	0.2738	0.5343	0.006
Mof_C 	C 	0.68221	0.24146	0.5137	-0.011
Mof_C 	C 	0.64508	0.20516	0.5138	0.034
Mof_C 	C 	0.5921	0.2262	0.5343	-0
Mof_C 	C 	0.68221	0.74146	0.0137	-0.217
Mof_C 	C 	0.64508	0.70516	0.0138	-0.087
Mof_C 	C 	0.5921	0.7262	0.0343	0.004
Mof_C 	C 	0.18221	0.24146	0.0137	-0.227
Mof_C 	C 	0.14508	0.20516	0.0138	-0.093
Mof_C 	C 	0.0921	0.2262	0.0343	0.002
Mof_C 	C 	0.18221	0.74146	0.5137	-0.011
Mof_C 	C 	0.14508	0.70516	0.5138	0.035
Mof_C 	C 	0.0921	0.7262	0.5343	-0.003
Mof_C 	C 	0.68221	0.75854	0.4863	-0.011
Mof_C 	C 	0.64508	0.79484	0.4862	0.036
Mof_C 	C 	0.5921	0.7738	0.4657	-0.002
Mof_C 	C 	0.68221	0.25854	0.9863	0.222
Mof_C 	C 	0.64508	0.29484	0.9862	0.195
Mof_C 	C 	0.5921	0.2738	0.9657	-0.004
Mof_C 	C 	0.18221	0.75854	0.9863	0.219
Mof_C 	C 	0.14508	0.79484	0.9862	0.195
Mof_C 	C 	0.0921	0.7738	0.9657	-0.007
Mof_C 	C 	0.18221	0.25854	0.4863	-0.01
Mof_C 	C 	0.14508	0.29484	0.4862	0.039
Mof_C 	C 	0.0921	0.2738	0.4657	-0.005
Mof_C 	C 	0.31779	0.24146	0.4863	-0.009
Mof_C 	C 	0.35492	0.20516	0.4862	0.037
Mof_C 	C 	0.4079	0.2262	0.4657	0
Mof_C 	C 	0.31779	0.74146	0.9863	0.22
Mof_C 	C 	0.35492	0.70516	0.9862	0.192
Mof_C 	C 	0.4079	0.7262	0.9657	-0.002
Mof_C 	C 	0.81779	0.24146	0.9863	0.218
Mof_C 	C 	0.85492	0.20516	0.9862	0.19
Mof_C 	C 	0.9079	0.2262	0.9657	0.005
Mof_C 	C 	0.81779	0.74146	0.4863	-0.011
Mof_C 	C 	0.85492	0.70516	0.4862	0.034
Mof_C 	C 	0.9079	0.7262	0.4657	0.007
Mof_C 	C 	0.5137	0.31779	0.75854	-0.011
Mof_C 	C 	0.5138	0.35492	0.79484	0.033
Mof_C 	C 	0.5343	0.4079	0.7738	-0.001
Mof_C 	C 	0.5137	0.81779	0.25854	-0.011
Mof_C 	C 	0.5138	0.85492	0.29484	0.032
Mof_C 	C 	0.5343	0.9079	0.2738	0.006
Mof_C 	C 	0.0137	0.31779	0.25854	-0.224
Mof_C 	C 	0.0138	0.35492	0.29484	-0.096
Mof_C 	C 	0.0343	0.4079	0.2738	0.004
Mof_C 	C 	0.0137	0.81779	0.75854	-0.208
Mof_C 	C 	0.0138	0.85492	0.79484	-0.091
Mof_C 	C 	0.0343	0.9079	0.7738	0.011
Mof_C 	C 	0.5137	0.68221	0.24146	-0.011
Mof_C 	C 	0.5138	0.64508	0.20516	0.034
Mof_C 	C 	0.5343	0.5921	0.2262	-0
Mof_C 	C 	0.5137	0.18221	0.74146	-0.011
Mof_C 	C 	0.5138	0.14508	0.70516	0.035
Mof_C 	C 	0.5343	0.0921	0.7262	-0.003
Mof_C 	C 	0.0137	0.68221	0.74146	-0.217
Mof_C 	C 	0.0138	0.64508	0.70516	-0.087
Mof_C 	C 	0.0343	0.5921	0.7262	0.004
Mof_C 	C 	0.0137	0.18221	0.24146	-0.227
Mof_C 	C 	0.0138	0.14508	0.20516	-0.093
Mof_C 	C 	0.0343	0.0921	0.2262	0.002
Mof_C 	C 	0.4863	0.68221	0.75854	-0.011
Mof_C 	C 	0.4862	0.64508	0.79484	0.036
Mof_C 	C 	0.4657	0.5921	0.7738	-0.002
Mof_C 	C 	0.4863	0.18221	0.25854	-0.01
Mof_C 	C 	0.4862	0.14508	0.29484	0.039
Mof_C 	C 	0.4657	0.0921	0.2738	-0.005
Mof_C 	C 	0.9863	0.68221	0.25854	0.222
Mof_C 	C 	0.9862	0.64508	0.29484	0.195
Mof_C 	C 	0.9657	0.5921	0.2738	-0.004
Mof_C 	C 	0.9863	0.18221	0.75854	0.219
Mof_C 	C 	0.9862	0.14508	0.79484	0.195
Mof_C 	C 	0.9657	0.0921	0.7738	-0.007
Mof_C 	C 	0.4863	0.31779	0.24146	-0.009
Mof_C 	C 	0.4862	0.35492	0.20516	0.037
Mof_C 	C 	0.4657	0.4079	0.2262	0
Mof_C 	C 	0.4863	0.81779	0.74146	-0.011
Mof_C 	C 	0.4862	0.85492	0.70516	0.034
Mof_C 	C 	0.4657	0.9079	0.7262	0.007
Mof_C 	C 	0.9863	0.31779	0.74146	0.22
Mof_C 	C 	0.9862	0.35492	0.70516	0.192
Mof_C 	C 	0.9657	0.4079	0.7262	-0.002
Mof_C 	C 	0.9863	0.81779	0.24146	0.218
Mof_C 	C 	0.9862	0.85492	0.20516	0.19
Mof_C 	C 	0.9657	0.9079	0.2262	0.005
Mof_C 	C 	0.75854	0.5137	0.31779	-0.011
Mof_C 	C 	0.79484	0.5138	0.35492	0.033
Mof_C 	C 	0.7738	0.5343	0.4079	-0.001
Mof_C 	C 	0.75854	0.0137	0.81779	-0.208
Mof_C 	C 	0.79484	0.0138	0.85492	-0.091
Mof_C 	C 	0.7738	0.0343	0.9079	0.011
Mof_C 	C 	0.25854	0.5137	0.81779	-0.011
Mof_C 	C 	0.29484	0.5138	0.85492	0.032
Mof_C 	C 	0.2738	0.5343	0.9079	0.006
Mof_C 	C 	0.25854	0.0137	0.31779	-0.224
Mof_C 	C 	0.29484	0.0138	0.35492	-0.096
Mof_C 	C 	0.2738	0.0343	0.4079	0.004
Mof_C 	C 	0.24146	0.5137	0.68221	-0.011
Mof_C 	C 	0.20516	0.5138	0.64508	0.034
Mof_C 	C 	0.2262	0.5343	0.5921	-0
Mof_C 	C 	0.24146	0.0137	0.18221	-0.227
Mof_C 	C 	0.20516	0.0138	0.14508	-0.093
Mof_C 	C 	0.2262	0.0343	0.0921	0.002
Mof_C 	C 	0.74146	0.5137	0.18221	-0.011
Mof_C 	C 	0.70516	0.5138	0.14508	0.035
Mof_C 	C 	0.7262	0.5343	0.0921	-0.003
Mof_C 	C 	0.74146	0.0137	0.68221	-0.217
Mof_C 	C 	0.70516	0.0138	0.64508	-0.087
Mof_C 	C 	0.7262	0.0343	0.5921	0.004
Mof_C 	C 	0.75854	0.4863	0.68221	-0.011
Mof_C 	C 	0.79484	0.4862	0.64508	0.036
Mof_C 	C 	0.7738	0.4657	0.5921	-0.002
Mof_C 	C 	0.75854	0.9863	0.18221	0.219
Mof_C 	C 	0.79484	0.9862	0.14508	0.195
Mof_C 	C 	0.7738	0.9657	0.0921	-0.007
Mof_C 	C 	0.25854	0.4863	0.18221	-0.01
Mof_C 	C 	0.29484	0.4862	0.14508	0.039
Mof_C 	C 	0.2738	0.4657	0.0921	-0.005
Mof_C 	C 	0.25854	0.9863	0.68221	0.222
Mof_C 	C 	0.29484	0.9862	0.64508	0.195
Mof_C 	C 	0.2738	0.9657	0.5921	-0.004
Mof_C 	C 	0.24146	0.4863	0.31779	-0.009
Mof_C 	C 	0.20516	0.4862	0.35492	0.037
Mof_C 	C 	0.2262	0.4657	0.4079	0
Mof_C 	C 	0.24146	0.9863	0.81779	0.218
Mof_C 	C 	0.20516	0.9862	0.85492	0.19
Mof_C 	C 	0.2262	0.9657	0.9079	0.005
Mof_C 	C 	0.74146	0.4863	0.81779	-0.011
Mof_C 	C 	0.70516	0.4862	0.85492	0.034
Mof_C 	C 	0.7262	0.4657	0.9079	0.007
Mof_C 	C 	0.74146	0.9863	0.31779	0.22
Mof_C 	C 	0.70516	0.9862	0.35492	0.192
Mof_C 	C 	0.7262	0.9657	0.4079	-0.002
Mof_C 	C 	0.75854	0.31779	0.4863	-0.011
Mof_C 	C 	0.79484	0.35492	0.4862	0.036
Mof_C 	C 	0.7738	0.4079	0.4657	-0.001
Mof_C 	C 	0.75854	0.81779	0.9863	0.207
Mof_C 	C 	0.79484	0.85492	0.9862	0.185
Mof_C 	C 	0.7738	0.9079	0.9657	0.003
Mof_C 	C 	0.25854	0.31779	0.9863	0.226
Mof_C 	C 	0.29484	0.35492	0.9862	0.199
Mof_C 	C 	0.2738	0.4079	0.9657	-0.003
Mof_C 	C 	0.25854	0.81779	0.4863	-0.011
Mof_C 	C 	0.29484	0.85492	0.4862	0.035
Mof_C 	C 	0.2738	0.9079	0.4657	0.006
Mof_C 	C 	0.24146	0.68221	0.4863	-0.01
Mof_C 	C 	0.20516	0.64508	0.4862	0.037
Mof_C 	C 	0.2262	0.5921	0.4657	-0
Mof_C 	C 	0.24146	0.18221	0.9863	0.23
Mof_C 	C 	0.20516	0.14508	0.9862	0.201
Mof_C 	C 	0.2262	0.0921	0.9657	-0.005
Mof_C 	C 	0.74146	0.68221	0.9863	0.216
Mof_C 	C 	0.70516	0.64508	0.9862	0.188
Mof_C 	C 	0.7262	0.5921	0.9657	-0.002
Mof_C 	C 	0.74146	0.18221	0.4863	-0.01
Mof_C 	C 	0.70516	0.14508	0.4862	0.038
Mof_C 	C 	0.7262	0.0921	0.4657	-0.003
Mof_C 	C 	0.75854	0.68221	0.5137	-0.012
Mof_C 	C 	0.79484	0.64508	0.5138	0.033
Mof_C 	C 	0.7738	0.5921	0.5343	-0.002
Mof_C 	C 	0.75854	0.18221	0.0137	-0.219
Mof_C 	C 	0.79484	0.14508	0.0138	-0.092
Mof_C 	C 	0.7738	0.0921	0.0343	0
Mof_C 	C 	0.25854	0.68221	0.0137	-0.222
Mof_C 	C 	0.29484	0.64508	0.0138	-0.092
Mof_C 	C 	0.2738	0.5921	0.0343	0.003
Mof_C 	C 	0.25854	0.18221	0.5137	-0.011
Mof_C 	C 	0.29484	0.14508	0.5138	0.035
Mof_C 	C 	0.2738	0.0921	0.5343	-0.005
Mof_C 	C 	0.24146	0.31779	0.5137	-0.01
Mof_C 	C 	0.20516	0.35492	0.5138	0.034
Mof_C 	C 	0.2262	0.4079	0.5343	0
Mof_C 	C 	0.24146	0.81779	0.0137	-0.216
Mof_C 	C 	0.20516	0.85492	0.0138	-0.092
Mof_C 	C 	0.2262	0.9079	0.0343	0.013
Mof_C 	C 	0.74146	0.31779	0.0137	-0.219
Mof_C 	C 	0.70516	0.35492	0.0138	-0.09
Mof_C 	C 	0.7262	0.4079	0.0343	0.005
Mof_C 	C 	0.74146	0.81779	0.5137	-0.011
Mof_C 	C 	0.70516	0.85492	0.5138	0.032
Mof_C 	C 	0.7262	0.9079	0.5343	0.007
Mof_C 	C 	0.31779	0.5137	0.24146	-0.01
Mof_C 	C 	0.35492	0.5138	0.20516	0.034
Mof_C 	C 	0.4079	0.5343	0.2262	0
Mof_C 	C 	0.31779	0.0137	0.74146	-0.219
Mof_C 	C 	0.35492	0.0138	0.70516	-0.09
Mof_C 	C 	0.4079	0.0343	0.7262	0.005
Mof_C 	C 	0.81779	0.5137	0.74146	-0.011
Mof_C 	C 	0.85492	0.5138	0.70516	0.032
Mof_C 	C 	0.9079	0.5343	0.7262	0.007
Mof_C 	C 	0.81779	0.0137	0.24146	-0.216
Mof_C 	C 	0.85492	0.0138	0.20516	-0.092
Mof_C 	C 	0.9079	0.0343	0.2262	0.013
Mof_C 	C 	0.68221	0.5137	0.75854	-0.012
Mof_C 	C 	0.64508	0.5138	0.79484	0.033
Mof_C 	C 	0.5921	0.5343	0.7738	-0.002
Mof_C 	C 	0.68221	0.0137	0.25854	-0.222
Mof_C 	C 	0.64508	0.0138	0.29484	-0.092
Mof_C 	C 	0.5921	0.0343	0.2738	0.003
Mof_C 	C 	0.18221	0.5137	0.25854	-0.011
Mof_C 	C 	0.14508	0.5138	0.29484	0.035
Mof_C 	C 	0.0921	0.5343	0.2738	-0.005
Mof_C 	C 	0.18221	0.0137	0.75854	-0.219
Mof_C 	C 	0.14508	0.0138	0.79484	-0.092
Mof_C 	C 	0.0921	0.0343	0.7738	0
Mof_C 	C 	0.68221	0.4863	0.24146	-0.01
Mof_C 	C 	0.64508	0.4862	0.20516	0.037
Mof_C 	C 	0.5921	0.4657	0.2262	-0
Mof_C 	C 	0.68221	0.9863	0.74146	0.216
Mof_C 	C 	0.64508	0.9862	0.70516	0.188
Mof_C 	C 	0.5921	0.9657	0.7262	-0.002
Mof_C 	C 	0.18221	0.4863	0.74146	-0.01
Mof_C 	C 	0.14508	0.4862	0.70516	0.038
Mof_C 	C 	0.0921	0.4657	0.7262	-0.003
Mof_C 	C 	0.18221	0.9863	0.24146	0.23
Mof_C 	C 	0.14508	0.9862	0.20516	0.201
Mof_C 	C 	0.0921	0.9657	0.2262	-0.005
Mof_C 	C 	0.31779	0.4863	0.75854	-0.011
Mof_C 	C 	0.35492	0.4862	0.79484	0.036
Mof_C 	C 	0.4079	0.4657	0.7738	-0.001
Mof_C 	C 	0.31779	0.9863	0.25854	0.226
Mof_C 	C 	0.35492	0.9862	0.29484	0.199
Mof_C 	C 	0.4079	0.9657	0.2738	-0.003
Mof_C 	C 	0.81779	0.4863	0.25854	-0.011
Mof_C 	C 	0.85492	0.4862	0.29484	0.035
Mof_C 	C 	0.9079	0.4657	0.2738	0.006
Mof_C 	C 	0.81779	0.9863	0.75854	0.207
Mof_C 	C 	0.85492	0.9862	0.79484	0.185
Mof_C 	C 	0.9079	0.9657	0.7738	0.003
Mof_C 	C 	0.5137	0.75854	0.68221	-0.012
Mof_C 	C 	0.5138	0.79484	0.64508	0.033
Mof_C 	C 	0.5343	0.7738	0.5921	-0.002
Mof_C 	C 	0.5137	0.25854	0.18221	-0.011
Mof_C 	C 	0.5138	0.29484	0.14508	0.035
Mof_C 	C 	0.5343	0.2738	0.0921	-0.005
Mof_C 	C 	0.0137	0.75854	0.18221	-0.219
Mof_C 	C 	0.0138	0.79484	0.14508	-0.092
Mof_C 	C 	0.0343	0.7738	0.0921	0
Mof_C 	C 	0.0137	0.25854	0.68221	-0.222
Mof_C 	C 	0.0138	0.29484	0.64508	-0.092
Mof_C 	C 	0.0343	0.2738	0.5921	0.003
Mof_C 	C 	0.5137	0.24146	0.31779	-0.01
Mof_C 	C 	0.5138	0.20516	0.35492	0.034
Mof_C 	C 	0.5343	0.2262	0.4079	0
Mof_C 	C 	0.5137	0.74146	0.81779	-0.011
Mof_C 	C 	0.5138	0.70516	0.85492	0.032
Mof_C 	C 	0.5343	0.7262	0.9079	0.007
Mof_C 	C 	0.0137	0.24146	0.81779	-0.216
Mof_C 	C 	0.0138	0.20516	0.85492	-0.092
Mof_C 	C 	0.0343	0.2262	0.9079	0.013
Mof_C 	C 	0.0137	0.74146	0.31779	-0.219
Mof_C 	C 	0.0138	0.70516	0.35492	-0.09
Mof_C 	C 	0.0343	0.7262	0.4079	0.005
Mof_C 	C 	0.4863	0.75854	0.31779	-0.011
Mof_C 	C 	0.4862	0.79484	0.35492	0.036
Mof_C 	C 	0.4657	0.7738	0.4079	-0.001
Mof_C 	C 	0.4863	0.25854	0.81779	-0.011
Mof_C 	C 	0.4862	0.29484	0.85492	0.035
Mof_C 	C 	0.4657	0.2738	0.9079	0.006
Mof_C 	C 	0.9863	0.75854	0.81779	0.207
Mof_C 	C 	0.9862	0.79484	0.85492	0.185
Mof_C 	C 	0.9657	0.7738	0.9079	0.003
Mof_C 	C 	0.9863	0.25854	0.31779	0.226
Mof_C 	C 	0.9862	0.29484	0.35492	0.199
Mof_C 	C 	0.9657	0.2738	0.4079	-0.003
Mof_C 	C 	0.4863	0.24146	0.68221	-0.01
Mof_C 	C 	0.4862	0.20516	0.64508	0.037
Mof_C 	C 	0.4657	0.2262	0.5921	-0
Mof_C 	C 	0.4863	0.74146	0.18221	-0.01
Mof_C 	C 	0.4862	0.70516	0.14508	0.038
Mof_C 	C 	0.4657	0.7262	0.0921	-0.003
Mof_C 	C 	0.9863	0.24146	0.18221	0.23
Mof_C 	C 	0.9862	0.20516	0.14508	0.201
Mof_C 	C 	0.9657	0.2262	0.0921	-0.005
Mof_C 	C 	0.9863	0.74146	0.68221	0.216
Mof_C 	C 	0.9862	0.70516	0.64508	0.188
Mof_C 	C 	0.9657	0.7262	0.5921	-0.002
Mof_Zr	Zr	0.5	0.09204	0.5	3.243
Mof_Zr	Zr	0.5	0.59204	-0	3.237
Mof_Zr	Zr	-0	0.09204	-0	3.233
Mof_Zr	Zr	1.22855e-32	0.59204	0.5	3.237
Mof_Zr	Zr	0.5	0.90796	0.5	3.241
Mof_Zr	Zr	0.5	0.40796	-0	3.237
Mof_Zr	Zr	-0	0.90796	-0	3.231
Mof_Zr	Zr	1.22855e-32	0.40796	0.5	3.237
Mof_Zr	Zr	0.5	0.5	0.09204	3.243
Mof_Zr	Zr	0.5	0	0.59204	3.237
Mof_Zr	Zr	7.42522e-33	0.5	0.59204	3.237
Mof_Zr	Zr	-3.05583e-34	0	0.09204	3.233
Mof_Zr	Zr	0.5	0.5	0.90796	3.241
Mof_Zr	Zr	0.5	5.20542e-33	0.40796	3.237
Mof_Zr	Zr	1.19404e-32	0.5	0.40796	3.237
Mof_Zr	Zr	3.4043e-33	0	0.90796	3.231
Mof_Zr	Zr	0.09204	0.5	0.5	3.243
Mof_Zr	Zr	0.09204	0	-0	3.233
Mof_Zr	Zr	0.59204	0.5	-0	3.237
Mof_Zr	Zr	0.59204	0	0.5	3.237
Mof_Zr	Zr	0.90796	0.5	0.5	3.241
Mof_Zr	Zr	0.90796	0	-0	3.231
Mof_Zr	Zr	0.40796	0.5	-0	3.237
Mof_Zr	Zr	0.40796	0	0.5	3.237
Mof_O 	O 	0.57236	0.13171	0.5	-0.682
Mof_O 	O 	0.57236	0.63171	-0	-0.708
Mof_O 	O 	0.07236	0.13171	-0	-0.713
Mof_O 	O 	0.07236	0.63171	0.5	-0.684
Mof_O 	O 	0.42764	0.86829	0.5	-0.679
Mof_O 	O 	0.42764	0.36829	-0	-0.708
Mof_O 	O 	0.92764	0.86829	-0	-0.685
Mof_O 	O 	0.92764	0.36829	0.5	-0.661
Mof_O 	O 	0.42764	0.13171	0.5	-0.682
Mof_O 	O 	0.42764	0.63171	-0	-0.708
Mof_O 	O 	0.92764	0.13171	-0	-0.688
Mof_O 	O 	0.92764	0.63171	0.5	-0.662
Mof_O 	O 	0.57236	0.86829	0.5	-0.679
Mof_O 	O 	0.57236	0.36829	-0	-0.708
Mof_O 	O 	0.07236	0.86829	-0	-0.708
Mof_O 	O 	0.07236	0.36829	0.5	-0.684
Mof_O 	O 	0.5	0.57236	0.13171	-0.682
Mof_O 	O 	0.5	0.07236	0.63171	-0.684
Mof_O 	O 	-8.04231e-33	0.57236	0.63171	-0.708
Mof_O 	O 	4.93833e-34	0.07236	0.13171	-0.713
Mof_O 	O 	0.5	0.42764	0.86829	-0.679
Mof_O 	O 	0.5	0.92764	0.36829	-0.661
Mof_O 	O 	-6.42727e-33	0.42764	0.36829	-0.708
Mof_O 	O 	1.36664e-32	0.92764	0.86829	-0.685
Mof_O 	O 	0.5	0.42764	0.13171	-0.682
Mof_O 	O 	0.5	0.92764	0.63171	-0.662
Mof_O 	O 	-8.04231e-33	0.42764	0.63171	-0.708
Mof_O 	O 	-3.41023e-33	0.92764	0.13171	-0.688
Mof_O 	O 	0.5	0.57236	0.86829	-0.679
Mof_O 	O 	0.5	0.07236	0.36829	-0.684
Mof_O 	O 	3.98358e-33	0.57236	0.36829	-0.708
Mof_O 	O 	3.25557e-33	0.07236	0.86829	-0.708
Mof_O 	O 	0.13171	0.5	0.57236	-0.682
Mof_O 	O 	0.13171	0	0.07236	-0.713
Mof_O 	O 	0.63171	0.5	0.07236	-0.684
Mof_O 	O 	0.63171	5.20542e-33	0.57236	-0.708
Mof_O 	O 	0.86829	0.5	0.42764	-0.679
Mof_O 	O 	0.86829	0	0.92764	-0.685
Mof_O 	O 	0.36829	0.5	0.92764	-0.661
Mof_O 	O 	0.36829	-5.20542e-33	0.42764	-0.708
Mof_O 	O 	0.13171	0.5	0.42764	-0.682
Mof_O 	O 	0.13171	0	0.92764	-0.688
Mof_O 	O 	0.63171	0.5	0.92764	-0.662
Mof_O 	O 	0.63171	-5.20542e-33	0.42764	-0.708
Mof_O 	O 	0.86829	0.5	0.57236	-0.679
Mof_O 	O 	0.86829	0	0.07236	-0.708
Mof_O 	O 	0.36829	0.5	0.07236	-0.684
Mof_O 	O 	0.36829	5.20542e-33	0.57236	-0.708
Mof_O 	O 	0.13171	0.57236	0.5	-0.682
Mof_O 	O 	0.13171	0.07236	-0	-0.713
Mof_O 	O 	0.63171	0.57236	-0	-0.708
Mof_O 	O 	0.63171	0.07236	0.5	-0.684
Mof_O 	O 	0.86829	0.42764	0.5	-0.679
Mof_O 	O 	0.86829	0.92764	-0	-0.685
Mof_O 	O 	0.36829	0.42764	-0	-0.708
Mof_O 	O 	0.36829	0.92764	0.5	-0.661
Mof_O 	O 	0.13171	0.42764	0.5	-0.682
Mof_O 	O 	0.13171	0.92764	-0	-0.688
Mof_O 	O 	0.63171	0.42764	-0	-0.708
Mof_O 	O 	0.63171	0.92764	0.5	-0.662
Mof_O 	O 	0.86829	0.57236	0.5	-0.679
Mof_O 	O 	0.86829	0.07236	-0	-0.708
Mof_O 	O 	0.36829	0.57236	-0	-0.708
Mof_O 	O 	0.36829	0.07236	0.5	-0.684
Mof_O 	O 	0.57236	0.5	0.86829	-0.679
Mof_O 	O 	0.57236	0	0.36829	-0.708
Mof_O 	O 	0.07236	0.5	0.36829	-0.684
Mof_O 	O 	0.07236	0	0.86829	-0.708
Mof_O 	O 	0.42764	0.5	0.13171	-0.682
Mof_O 	O 	0.42764	0	0.63171	-0.708
Mof_O 	O 	0.92764	0.5	0.63171	-0.662
Mof_O 	O 	0.92764	0	0.13171	-0.688
Mof_O 	O 	0.42764	0.5	0.86829	-0.679
Mof_O 	O 	0.42764	0	0.36829	-0.708
Mof_O 	O 	0.92764	0.5	0.36829	-0.661
Mof_O 	O 	0.92764	0	0.86829	-0.685
Mof_O 	O 	0.57236	0.5	0.13171	-0.682
Mof_O 	O 	0.57236	0	0.63171	-0.708
Mof_O 	O 	0.07236	0.5	0.63171	-0.684
Mof_O 	O 	0.07236	0	0.13171	-0.713
Mof_O 	O 	0.5	0.13171	0.42764	-0.682
Mof_O 	O 	0.5	0.63171	0.92764	-0.662
Mof_O 	O 	-6.93275e-33	0.13171	0.92764	-0.688
Mof_O 	O 	-3.60203e-33	0.63171	0.42764	-0.708
Mof_O 	O 	0.5	0.86829	0.57236	-0.679
Mof_O 	O 	0.5	0.36829	0.07236	-0.684
Mof_O 	O 	7.42876e-33	0.86829	0.07236	-0.708
Mof_O 	O 	-3.05942e-33	0.36829	0.57236	-0.708
Mof_O 	O 	0.5	0.13171	0.57236	-0.682
Mof_O 	O 	0.5	0.63171	0.07236	-0.684
Mof_O 	O 	9.21984e-34	0.13171	0.07236	-0.713
Mof_O 	O 	-3.05942e-33	0.63171	0.57236	-0.708
Mof_O 	O 	0.5	0.86829	0.42764	-0.679
Mof_O 	O 	0.5	0.36829	0.92764	-0.661
Mof_O 	O 	1.38889e-32	0.86829	0.92764	-0.685
Mof_O 	O 	-3.60203e-33	0.36829	0.42764	-0.708
Mof_C 	C 	0.61724	0.11724	0.5	0.506
Mof_C 	C 	0.65667	0.15667	0.5	-0.164
Mof_C 	C 	0.73039	0.23039	0.5	0.013
Mof_C 	C 	0.61724	0.61724	-0	0.517
Mof_C 	C 	0.65667	0.65667	-0	-0.229
Mof_C 	C 	0.73039	0.73039	-0	-0.034
Mof_C 	C 	0.38276	0.88276	0.5	0.499
Mof_C 	C 	0.34333	0.84333	0.5	-0.162
Mof_C 	C 	0.26961	0.76961	0.5	0.012
Mof_C 	C 	0.38276	0.38276	-0	0.518
Mof_C 	C 	0.34333	0.34333	-0	-0.231
Mof_C 	C 	0.26961	0.26961	-0	-0.035
Mof_C 	C 	0.38276	0.11724	0.5	0.506
Mof_C 	C 	0.34333	0.15667	0.5	-0.164
Mof_C 	C 	0.26961	0.23039	0.5	0.014
Mof_C 	C 	0.38276	0.61724	-0	0.518
Mof_C 	C 	0.34333	0.65667	-0	-0.23
Mof_C 	C 	0.26961	0.73039	-0	-0.034
Mof_C 	C 	0.61724	0.88276	0.5	0.499
Mof_C 	C 	0.65667	0.84333	0.5	-0.162
Mof_C 	C 	0.73039	0.76961	0.5	0.011
Mof_C 	C 	0.61724	0.38276	-0	0.518
Mof_C 	C 	0.65667	0.34333	-0	-0.23
Mof_C 	C 	0.73039	0.26961	-0	-0.034
Mof_C 	C 	0.5	0.61724	0.11724	0.506
Mof_C 	C 	0.5	0.65667	0.15667	-0.164
Mof_C 	C 	0.5	0.73039	0.23039	0.013
Mof_C 	C 	2.31428e-33	0.61724	0.61724	0.517
Mof_C 	C 	2.46212e-33	0.65667	0.65667	-0.229
Mof_C 	C 	2.73852e-33	0.73039	0.73039	-0.034
Mof_C 	C 	0.5	0.38276	0.88276	0.499
Mof_C 	C 	0.5	0.34333	0.84333	-0.162
Mof_C 	C 	0.5	0.26961	0.76961	0.012
Mof_C 	C 	1.43512e-33	0.38276	0.38276	0.518
Mof_C 	C 	6.4927e-33	0.34333	0.34333	-0.231
Mof_C 	C 	1.01088e-33	0.26961	0.26961	-0.035
Mof_C 	C 	0.5	0.38276	0.11724	0.506
Mof_C 	C 	0.5	0.34333	0.15667	-0.164
Mof_C 	C 	0.5	0.26961	0.23039	0.014
Mof_C 	C 	-2.89114e-33	0.38276	0.61724	0.518
Mof_C 	C 	-2.7433e-33	0.34333	0.65667	-0.23
Mof_C 	C 	-2.4669e-33	0.26961	0.73039	-0.034
Mof_C 	C 	0.5	0.61724	0.88276	0.499
Mof_C 	C 	0.5	0.65667	0.84333	-0.162
Mof_C 	C 	0.5	0.73039	0.76961	0.011
Mof_C 	C 	1.43512e-33	0.61724	0.38276	0.518
Mof_C 	C 	1.28728e-33	0.65667	0.34333	-0.23
Mof_C 	C 	-1.59184e-33	0.73039	0.26961	-0.034
Mof_C 	C 	0.11724	0.5	0.61724	0.506
Mof_C 	C 	0.15667	0.5	0.65667	-0.164
Mof_C 	C 	0.23039	0.5	0.73039	0.013
Mof_C 	C 	0.11724	0	0.11724	0.523
Mof_C 	C 	0.15667	-1.30136e-33	0.15667	-0.231
Mof_C 	C 	0.23039	0	0.23039	-0.034
Mof_C 	C 	0.88276	0.5	0.38276	0.499
Mof_C 	C 	0.84333	0.5	0.34333	-0.162
Mof_C 	C 	0.76961	0.5	0.26961	0.012
Mof_C 	C 	0.88276	0	0.88276	0.508
Mof_C 	C 	0.84333	0	0.84333	-0.221
Mof_C 	C 	0.76961	0	0.76961	-0.034
Mof_C 	C 	0.11724	0.5	0.38276	0.506
Mof_C 	C 	0.15667	0.5	0.34333	-0.164
Mof_C 	C 	0.23039	0.5	0.26961	0.014
Mof_C 	C 	0.11724	0	0.88276	0.515
Mof_C 	C 	0.15667	0	0.84333	-0.226
Mof_C 	C 	0.23039	0	0.76961	-0.034
Mof_C 	C 	0.88276	0.5	0.61724	0.499
Mof_C 	C 	0.84333	0.5	0.65667	-0.162
Mof_C 	C 	0.76961	0.5	0.73039	0.011
Mof_C 	C 	0.88276	0	0.11724	0.515
Mof_C 	C 	0.84333	-1.30136e-33	0.15667	-0.226
Mof_C 	C 	0.76961	0	0.23039	-0.034
Mof_C 	C 	0.11724	0.61724	0.5	0.506
Mof_C 	C 	0.15667	0.65667	0.5	-0.164
Mof_C 	C 	0.23039	0.73039	0.5	0.013
Mof_C 	C 	0.11724	0.11724	-0	0.523
Mof_C 	C 	0.15667	0.15667	-0	-0.231
Mof_C 	C 	0.23039	0.23039	-0	-0.034
Mof_C 	C 	0.88276	0.38276	0.5	0.499
Mof_C 	C 	0.84333	0.34333	0.5	-0.162
Mof_C 	C 	0.76961	0.26961	0.5	0.012
Mof_C 	C 	0.88276	0.88276	-0	0.508
Mof_C 	C 	0.84333	0.84333	-0	-0.221
Mof_C 	C 	0.76961	0.76961	-0	-0.034
Mof_C 	C 	0.11724	0.38276	0.5	0.506
Mof_C 	C 	0.15667	0.34333	0.5	-0.164
Mof_C 	C 	0.23039	0.26961	0.5	0.014
Mof_C 	C 	0.11724	0.88276	-0	0.515
Mof_C 	C 	0.15667	0.84333	-0	-0.226
Mof_C 	C 	0.23039	0.76961	-0	-0.034
Mof_C 	C 	0.88276	0.61724	0.5	0.499
Mof_C 	C 	0.84333	0.65667	0.5	-0.162
Mof_C 	C 	0.76961	0.73039	0.5	0.011
Mof_C 	C 	0.88276	0.11724	-0	0.515
Mof_C 	C 	0.84333	0.15667	-0	-0.226
Mof_C 	C 	0.76961	0.23039	-0	-0.034
Mof_C 	C 	0.61724	0.5	0.88276	0.499
Mof_C 	C 	0.65667	0.5	0.84333	-0.162
Mof_C 	C 	0.73039	0.5	0.76961	0.011
Mof_C 	C 	0.61724	0	0.38276	0.518
Mof_C 	C 	0.65667	2.60271e-33	0.34333	-0.23
Mof_C 	C 	0.73039	0	0.26961	-0.034
Mof_C 	C 	0.38276	0.5	0.11724	0.506
Mof_C 	C 	0.34333	0.5	0.15667	-0.164
Mof_C 	C 	0.26961	0.5	0.23039	0.014
Mof_C 	C 	0.38276	0	0.61724	0.518
Mof_C 	C 	0.34333	0	0.65667	-0.23
Mof_C 	C 	0.26961	0	0.73039	-0.034
Mof_C 	C 	0.38276	0.5	0.88276	0.499
Mof_C 	C 	0.34333	0.5	0.84333	-0.162
Mof_C 	C 	0.26961	0.5	0.76961	0.012
Mof_C 	C 	0.38276	0	0.38276	0.518
Mof_C 	C 	0.34333	2.60271e-33	0.34333	-0.231
Mof_C 	C 	0.26961	0	0.26961	-0.035
Mof_C 	C 	0.61724	0.5	0.11724	0.506
Mof_C 	C 	0.65667	0.5	0.15667	-0.164
Mof_C 	C 	0.73039	0.5	0.23039	0.013
Mof_C 	C 	0.61724	0	0.61724	0.517
Mof_C 	C 	0.65667	0	0.65667	-0.229
Mof_C 	C 	0.73039	0	0.73039	-0.034
Mof_C 	C 	0.5	0.11724	0.38276	0.506
Mof_C 	C 	0.5	0.15667	0.34333	-0.164
Mof_C 	C 	0.5	0.23039	0.26961	0.014
Mof_C 	C 	3.30982e-33	0.11724	0.88276	0.515
Mof_C 	C 	3.16198e-33	0.15667	0.84333	-0.226
Mof_C 	C 	-7.52527e-33	0.23039	0.76961	-0.034
Mof_C 	C 	0.5	0.88276	0.61724	0.499
Mof_C 	C 	0.5	0.84333	0.65667	-0.162
Mof_C 	C 	0.5	0.76961	0.73039	0.011
Mof_C 	C 	4.3958e-34	0.88276	0.11724	0.515
Mof_C 	C 	5.87418e-34	0.84333	0.15667	-0.226
Mof_C 	C 	-4.3416e-33	0.76961	0.23039	-0.034
Mof_C 	C 	0.5	0.11724	0.61724	0.506
Mof_C 	C 	0.5	0.15667	0.65667	-0.164
Mof_C 	C 	0.5	0.23039	0.73039	0.013
Mof_C 	C 	4.3958e-34	0.11724	0.11724	0.523
Mof_C 	C 	-2.01529e-33	0.15667	0.15667	-0.231
Mof_C 	C 	8.63824e-34	0.23039	0.23039	-0.034
Mof_C 	C 	0.5	0.88276	0.38276	0.499
Mof_C 	C 	0.5	0.84333	0.34333	-0.162
Mof_C 	C 	0.5	0.76961	0.26961	0.012
Mof_C 	C 	3.30982e-33	0.88276	0.88276	0.508
Mof_C 	C 	3.16198e-33	0.84333	0.84333	-0.221
Mof_C 	C 	2.88558e-33	0.76961	0.76961	-0.034
Mof_O 	O 	0.46135	0.03865	0.46135	-1.714
Mof_O 	O 	0.44811	0.05189	0.44811	0.647
Mof_O 	O 	0.53865	0.96135	0.46135	-1.628
Mof_O 	O 	0.55189	0.94811	0.44811	0.597
Mof_O 	O 	0.03865	0.46135	0.46135	-1.714
Mof_O 	O 	0.05189	0.44811	0.44811	0.647
Mof_O 	O 	0.53865	0.03865	0.53865	-1.713
Mof_O 	O 	0.55189	0.05189	0.55189	0.646
Mof_O 	O 	0.03865	0.03865	0.03865	-1.807
Mof_O 	O 	0.05189	0.05189	0.05189	0.721
Mof_O 	O 	0.46135	0.96135	0.53865	-1.628
Mof_O 	O 	0.44811	0.94811	0.55189	0.597
Mof_O 	O 	0.46135	0.46135	0.03865	-1.714
Mof_O 	O 	0.44811	0.44811	0.05189	0.647
Mof_O 	O 	0.46135	0.53865	0.96135	-1.628
Mof_O 	O 	0.44811	0.55189	0.94811	0.597
Mof_O 	O 	0.53865	0.53865	0.03865	-1.713
Mof_O 	O 	0.55189	0.55189	0.05189	0.646
Mof_O 	O 	0.53865	0.46135	0.96135	-1.628
Mof_O 	O 	0.55189	0.44811	0.94811	0.597
Mof_O 	O 	0.03865	0.96135	0.96135	-1.629
Mof_O 	O 	0.05189	0.94811	0.94811	0.615
Mof_O 	O 	0.96135	0.46135	0.53865	-1.628
Mof_O 	O 	0.94811	0.44811	0.55189	0.597
Mof_O 	O 	0.96135	0.96135	0.03865	-1.629
Mof_O 	O 	0.94811	0.94811	0.05189	0.615
Mof_O 	O 	0.03865	0.53865	0.53865	-1.713
Mof_O 	O 	0.05189	0.55189	0.55189	0.646
Mof_O 	O 	0.96135	0.53865	0.46135	-1.628
Mof_O 	O 	0.94811	0.55189	0.44811	0.597
Mof_O 	O 	0.96135	0.03865	0.96135	-1.629
Mof_O 	O 	0.94811	0.05189	0.94811	0.615
Mof_O 	O 	0.03865	0.46135	0.53865	-1.713
Mof_O 	O 	0.05189	0.44811	0.55189	0.647
Mof_O 	O 	0.03865	0.96135	0.03865	-1.713
Mof_O 	O 	0.05189	0.94811	0.05189	0.665
Mof_O 	O 	0.96135	0.53865	0.53865	-1.628
Mof_O 	O 	0.94811	0.55189	0.55189	0.596
Mof_O 	O 	0.96135	0.03865	0.03865	-1.713
Mof_O 	O 	0.94811	0.05189	0.05189	0.665
Mof_O 	O 	0.46135	0.53865	0.03865	-1.713
Mof_O 	O 	0.44811	0.55189	0.05189	0.647
Mof_O 	O 	0.46135	0.03865	0.53865	-1.713
Mof_O 	O 	0.44811	0.05189	0.55189	0.647
Mof_O 	O 	0.03865	0.53865	0.46135	-1.713
Mof_O 	O 	0.05189	0.55189	0.44811	0.647
Mof_O 	O 	0.03865	0.03865	0.96135	-1.713
Mof_O 	O 	0.05189	0.05189	0.94811	0.665
Mof_O 	O 	0.96135	0.46135	0.46135	-1.628
Mof_O 	O 	0.94811	0.44811	0.44811	0.597
Mof_O 	O 	0.96135	0.96135	0.96135	-1.556
Mof_O 	O 	0.94811	0.94811	0.94811	0.571
Mof_O 	O 	0.46135	0.46135	0.96135	-1.628
Mof_O 	O 	0.44811	0.44811	0.94811	0.597
Mof_O 	O 	0.53865	0.46135	0.03865	-1.713
Mof_O 	O 	0.55189	0.44811	0.05189	0.647
Mof_O 	O 	0.53865	0.53865	0.96135	-1.628
Mof_O 	O 	0.55189	0.55189	0.94811	0.596
Mof_O 	O 	0.53865	0.03865	0.46135	-1.713
Mof_O 	O 	0.55189	0.05189	0.44811	0.647
Mof_O 	O 	0.46135	0.96135	0.46135	-1.628
Mof_O 	O 	0.44811	0.94811	0.44811	0.597
Mof_O 	O 	0.53865	0.96135	0.53865	-1.628
Mof_O 	O 	0.55189	0.94811	0.55189	0.596
_end
