data_functionalizedCrystal
_audit_creation_method	'EQeq! by Chris Wilmer'
_symmetry_space_group_name_H-M	'P1'
_symmetry_Int_Tables_number	1
_symmetry_cell_setting	triclinic
loop_
_symmetry_equiv_pos_as_xyz
  x,y,z
_cell_length_a	16.5956
_cell_length_b	16.5956
_cell_length_c	12.2868
_cell_angle_alpha	90
_cell_angle_beta	90
_cell_angle_gamma	90
loop_
_atom_site_label
_atom_site_type_symbol
_atom_site_fract_x
_atom_site_fract_y
_atom_site_fract_z
_atom_site_charge
Mof_H 	H 	0.1446	0.7877	0.7548	0.202
Mof_O 	O 	0.39224	0.51347	0.61531	-0.464
Mof_C 	C 	0.2934	0.605	0.7495	0.358
Mof_H 	H 	0.2708	0.5595	0.7156	-0.094
Mof_C 	C 	0.2471	0.6515	0.8186	0.307
Mof_H 	H 	0.1921	0.6399	0.8288	-0.085
Mof_C 	C 	0.3147	0.591	0.7887	-0.332
Mof_H 	H 	0.3047	0.5355	0.7814	0.134
Mof_C 	C 	0.2679	0.6362	0.8594	-0.433
Mof_H 	H 	0.2255	0.6116	0.8978	0.171
Mof_H 	H 	0.8554	0.2123	0.7548	0.203
Mof_O 	O 	0.60776	0.48653	0.61531	-0.463
Mof_C 	C 	0.7066	0.395	0.7495	0.358
Mof_H 	H 	0.7292	0.4405	0.7156	-0.094
Mof_C 	C 	0.7529	0.3485	0.8186	0.307
Mof_H 	H 	0.8079	0.3601	0.8288	-0.085
Mof_C 	C 	0.6853	0.409	0.7887	-0.332
Mof_H 	H 	0.6953	0.4645	0.7814	0.134
Mof_C 	C 	0.7321	0.3638	0.8594	-0.433
Mof_H 	H 	0.7745	0.3884	0.8978	0.171
Mof_H 	H 	0.7123	0.6446	0.2548	0.184
Mof_O 	O 	0.98653	0.89224	0.11531	-0.473
Mof_C 	C 	0.895	0.7934	0.2495	0.302
Mof_H 	H 	0.9405	0.7708	0.2156	-0.082
Mof_C 	C 	0.8485	0.7471	0.3186	0.245
Mof_H 	H 	0.8601	0.6921	0.3288	-0.071
Mof_C 	C 	0.909	0.8147	0.2887	-0.281
Mof_H 	H 	0.9645	0.8047	0.2814	0.113
Mof_C 	C 	0.8638	0.7679	0.3594	-0.371
Mof_H 	H 	0.8884	0.7255	0.3978	0.138
Mof_H 	H 	0.2877	0.3554	0.2548	0.184
Mof_O 	O 	0.01347	0.10776	0.11531	-0.473
Mof_C 	C 	0.105	0.2066	0.2495	0.302
Mof_H 	H 	0.0595	0.2292	0.2156	-0.082
Mof_C 	C 	0.1515	0.2529	0.3186	0.245
Mof_H 	H 	0.1399	0.3079	0.3288	-0.071
Mof_C 	C 	0.091	0.1853	0.2887	-0.281
Mof_H 	H 	0.0355	0.1953	0.2814	0.113
Mof_C 	C 	0.1362	0.2321	0.3594	-0.371
Mof_H 	H 	0.1116	0.2745	0.3978	0.138
Mof_H 	H 	0.3554	0.2877	0.7452	0.225
Mof_O 	O 	0.10776	0.01347	0.88469	-0.434
Mof_C 	C 	0.2066	0.105	0.7505	0.197
Mof_H 	H 	0.2292	0.0595	0.7844	-0.034
Mof_C 	C 	0.2529	0.1515	0.6814	0.13
Mof_H 	H 	0.3079	0.1399	0.6712	-0.026
Mof_C 	C 	0.1853	0.091	0.7113	-0.17
Mof_H 	H 	0.1953	0.0355	0.7186	0.078
Mof_C 	C 	0.2321	0.1362	0.6406	-0.264
Mof_H 	H 	0.2745	0.1116	0.6022	0.109
Mof_H 	H 	0.6446	0.7123	0.7452	0.225
Mof_O 	O 	0.89224	0.98653	0.88469	-0.434
Mof_C 	C 	0.7934	0.895	0.7505	0.197
Mof_H 	H 	0.7708	0.9405	0.7844	-0.034
Mof_C 	C 	0.7471	0.8485	0.6814	0.13
Mof_H 	H 	0.6921	0.8601	0.6712	-0.026
Mof_C 	C 	0.8147	0.909	0.7113	-0.17
Mof_H 	H 	0.8047	0.9645	0.7186	0.078
Mof_C 	C 	0.7679	0.8638	0.6406	-0.264
Mof_H 	H 	0.7255	0.8884	0.6022	0.109
Mof_H 	H 	0.7877	0.1446	0.2452	0.209
Mof_O 	O 	0.51347	0.39224	0.38469	-0.466
Mof_C 	C 	0.605	0.2934	0.2505	0.157
Mof_H 	H 	0.5595	0.2708	0.2844	-0.029
Mof_C 	C 	0.6515	0.2471	0.1814	0.086
Mof_H 	H 	0.6399	0.1921	0.1712	-0.019
Mof_C 	C 	0.591	0.3147	0.2113	-0.135
Mof_H 	H 	0.5355	0.3047	0.2186	0.06
Mof_C 	C 	0.6362	0.2679	0.1406	-0.218
Mof_H 	H 	0.6116	0.2255	0.1022	0.079
Mof_H 	H 	0.2123	0.8554	0.2452	0.209
Mof_O 	O 	0.48653	0.60776	0.38469	-0.466
Mof_C 	C 	0.395	0.7066	0.2505	0.157
Mof_H 	H 	0.4405	0.7292	0.2844	-0.029
Mof_C 	C 	0.3485	0.7529	0.1814	0.086
Mof_H 	H 	0.3601	0.8079	0.1712	-0.019
Mof_C 	C 	0.409	0.6853	0.2113	-0.135
Mof_H 	H 	0.4645	0.6953	0.2186	0.06
Mof_C 	C 	0.3638	0.7321	0.1406	-0.218
Mof_H 	H 	0.3884	0.7745	0.1022	0.079
Mof_H 	H 	0.8554	0.2123	0.2452	0.209
Mof_O 	O 	0.60776	0.48653	0.38469	-0.466
Mof_C 	C 	0.7066	0.395	0.2505	0.157
Mof_H 	H 	0.7292	0.4405	0.2844	-0.029
Mof_C 	C 	0.7529	0.3485	0.1814	0.086
Mof_H 	H 	0.8079	0.3601	0.1712	-0.019
Mof_C 	C 	0.6853	0.409	0.2113	-0.135
Mof_H 	H 	0.6953	0.4645	0.2186	0.06
Mof_C 	C 	0.7321	0.3638	0.1406	-0.218
Mof_H 	H 	0.7745	0.3884	0.1022	0.079
Mof_H 	H 	0.1446	0.7877	0.2452	0.209
Mof_O 	O 	0.39224	0.51347	0.38469	-0.466
Mof_C 	C 	0.2934	0.605	0.2505	0.157
Mof_H 	H 	0.2708	0.5595	0.2844	-0.029
Mof_C 	C 	0.2471	0.6515	0.1814	0.086
Mof_H 	H 	0.1921	0.6399	0.1712	-0.019
Mof_C 	C 	0.3147	0.591	0.2113	-0.135
Mof_H 	H 	0.3047	0.5355	0.2186	0.06
Mof_C 	C 	0.2679	0.6362	0.1406	-0.218
Mof_H 	H 	0.2255	0.6116	0.1022	0.079
Mof_H 	H 	0.2877	0.3554	0.7452	0.225
Mof_O 	O 	0.01347	0.10776	0.88469	-0.434
Mof_C 	C 	0.105	0.2066	0.7505	0.197
Mof_H 	H 	0.0595	0.2292	0.7844	-0.034
Mof_C 	C 	0.1515	0.2529	0.6814	0.13
Mof_H 	H 	0.1399	0.3079	0.6712	-0.026
Mof_C 	C 	0.091	0.1853	0.7113	-0.17
Mof_H 	H 	0.0355	0.1953	0.7186	0.078
Mof_C 	C 	0.1362	0.2321	0.6406	-0.264
Mof_H 	H 	0.1116	0.2745	0.6022	0.109
Mof_H 	H 	0.7123	0.6446	0.7452	0.225
Mof_O 	O 	0.98653	0.89224	0.88469	-0.434
Mof_C 	C 	0.895	0.7934	0.7505	0.197
Mof_H 	H 	0.9405	0.7708	0.7844	-0.034
Mof_C 	C 	0.8485	0.7471	0.6814	0.13
Mof_H 	H 	0.8601	0.6921	0.6712	-0.026
Mof_C 	C 	0.909	0.8147	0.7113	-0.17
Mof_H 	H 	0.9645	0.8047	0.7186	0.078
Mof_C 	C 	0.8638	0.7679	0.6406	-0.264
Mof_H 	H 	0.8884	0.7255	0.6022	0.109
Mof_H 	H 	0.6446	0.7123	0.2548	0.184
Mof_O 	O 	0.89224	0.98653	0.11531	-0.473
Mof_C 	C 	0.7934	0.895	0.2495	0.302
Mof_H 	H 	0.7708	0.9405	0.2156	-0.082
Mof_C 	C 	0.7471	0.8485	0.3186	0.245
Mof_H 	H 	0.6921	0.8601	0.3288	-0.071
Mof_C 	C 	0.8147	0.909	0.2887	-0.281
Mof_H 	H 	0.8047	0.9645	0.2814	0.113
Mof_C 	C 	0.7679	0.8638	0.3594	-0.371
Mof_H 	H 	0.7255	0.8884	0.3978	0.138
Mof_H 	H 	0.3554	0.2877	0.2548	0.184
Mof_O 	O 	0.10776	0.01347	0.11531	-0.473
Mof_C 	C 	0.2066	0.105	0.2495	0.302
Mof_H 	H 	0.2292	0.0595	0.2156	-0.082
Mof_C 	C 	0.2529	0.1515	0.3186	0.245
Mof_H 	H 	0.3079	0.1399	0.3288	-0.071
Mof_C 	C 	0.1853	0.091	0.2887	-0.281
Mof_H 	H 	0.1953	0.0355	0.2814	0.113
Mof_C 	C 	0.2321	0.1362	0.3594	-0.371
Mof_H 	H 	0.2745	0.1116	0.3978	0.138
Mof_H 	H 	0.2123	0.8554	0.7548	0.203
Mof_O 	O 	0.48653	0.60776	0.61531	-0.463
Mof_C 	C 	0.395	0.7066	0.7495	0.358
Mof_H 	H 	0.4405	0.7292	0.7156	-0.094
Mof_C 	C 	0.3485	0.7529	0.8186	0.307
Mof_H 	H 	0.3601	0.8079	0.8288	-0.085
Mof_C 	C 	0.409	0.6853	0.7887	-0.332
Mof_H 	H 	0.4645	0.6953	0.7814	0.134
Mof_C 	C 	0.3638	0.7321	0.8594	-0.433
Mof_H 	H 	0.3884	0.7745	0.8978	0.171
Mof_H 	H 	0.7877	0.1446	0.7548	0.203
Mof_O 	O 	0.51347	0.39224	0.61531	-0.463
Mof_C 	C 	0.605	0.2934	0.7495	0.358
Mof_H 	H 	0.5595	0.2708	0.7156	-0.094
Mof_C 	C 	0.6515	0.2471	0.8186	0.307
Mof_H 	H 	0.6399	0.1921	0.8288	-0.085
Mof_C 	C 	0.591	0.3147	0.7887	-0.332
Mof_H 	H 	0.5355	0.3047	0.7814	0.134
Mof_C 	C 	0.6362	0.2679	0.8594	-0.433
Mof_H 	H 	0.6116	0.2255	0.8978	0.171
Mof_C 	C 	0.42183	0.57817	0.6471	0.382
Mof_C 	C 	0.37451	0.62549	0.7298	-0.091
Mof_C 	C 	0.28348	0.71652	0.8735	0.11
Mof_C 	C 	0.1633	0.8367	0.7896	-0.649
Mof_H 	H 	0.1221	0.8779	0.7829	0.223
Mof_C 	C 	0.17998	0.82002	0.9116	0.246
Mof_C 	C 	0.23392	0.76608	0.9445	-0.034
Mof_N 	N 	0.23392	0.76608	0.0555	-0.191
Mof_C 	C 	0.57817	0.42183	0.6471	0.382
Mof_C 	C 	0.62549	0.37451	0.7298	-0.091
Mof_C 	C 	0.71652	0.28348	0.8735	0.11
Mof_C 	C 	0.8367	0.1633	0.7896	-0.649
Mof_H 	H 	0.8779	0.1221	0.7829	0.223
Mof_C 	C 	0.82002	0.17998	0.9116	0.246
Mof_C 	C 	0.76608	0.23392	0.9445	-0.034
Mof_N 	N 	0.76608	0.23392	0.0555	-0.191
Mof_C 	C 	0.92183	0.92183	0.1471	0.379
Mof_C 	C 	0.87451	0.87451	0.2298	-0.101
Mof_C 	C 	0.78348	0.78348	0.3735	0.1
Mof_C 	C 	0.6633	0.6633	0.2896	-0.599
Mof_H 	H 	0.6221	0.6221	0.2829	0.203
Mof_C 	C 	0.67998	0.67998	0.4116	0.191
Mof_C 	C 	0.73392	0.73392	0.4445	-0.07
Mof_N 	N 	0.73392	0.73392	0.5555	-0.164
Mof_C 	C 	0.07817	0.07817	0.1471	0.379
Mof_C 	C 	0.12549	0.12549	0.2298	-0.101
Mof_C 	C 	0.21652	0.21652	0.3735	0.1
Mof_C 	C 	0.3367	0.3367	0.2896	-0.599
Mof_H 	H 	0.3779	0.3779	0.2829	0.203
Mof_C 	C 	0.32002	0.32002	0.4116	0.191
Mof_C 	C 	0.26608	0.26608	0.4445	-0.07
Mof_N 	N 	0.26608	0.26608	0.5555	-0.164
Mof_C 	C 	0.07817	0.07817	0.8529	0.38
Mof_C 	C 	0.12549	0.12549	0.7702	-0.099
Mof_C 	C 	0.21652	0.21652	0.6265	0.134
Mof_C 	C 	0.3367	0.3367	0.7104	-0.682
Mof_H 	H 	0.3779	0.3779	0.7171	0.236
Mof_C 	C 	0.32002	0.32002	0.5884	0.25
Mof_C 	C 	0.92183	0.92183	0.8529	0.38
Mof_C 	C 	0.87451	0.87451	0.7702	-0.099
Mof_C 	C 	0.78348	0.78348	0.6265	0.134
Mof_C 	C 	0.6633	0.6633	0.7104	-0.682
Mof_H 	H 	0.6221	0.6221	0.7171	0.236
Mof_C 	C 	0.67998	0.67998	0.5884	0.25
Mof_C 	C 	0.57817	0.42183	0.3529	0.386
Mof_C 	C 	0.62549	0.37451	0.2702	-0.113
Mof_C 	C 	0.71652	0.28348	0.1265	0.116
Mof_C 	C 	0.8367	0.1633	0.2104	-0.655
Mof_H 	H 	0.8779	0.1221	0.2171	0.22
Mof_C 	C 	0.82002	0.17998	0.0884	0.234
Mof_C 	C 	0.42183	0.57817	0.3529	0.386
Mof_C 	C 	0.37451	0.62549	0.2702	-0.113
Mof_C 	C 	0.28348	0.71652	0.1265	0.116
Mof_C 	C 	0.1633	0.8367	0.2104	-0.655
Mof_H 	H 	0.1221	0.8779	0.2171	0.22
Mof_C 	C 	0.17998	0.82002	0.0884	0.234
Mof_Co	Co	0.44009	0.44009	0.5	1.155
Mof_Co	Co	0.55991	0.55991	0.5	1.155
Mof_Co	Co	0.05991	0.94009	-0	1.126
Mof_Co	Co	0.94009	0.05991	-0	1.126
Mof_N 	N 	0.14666	0.85334	-0	-0.337
Mof_N 	N 	0.85334	0.14666	-0	-0.337
Mof_N 	N 	0.64666	0.64666	0.5	-0.295
Mof_N 	N 	0.35334	0.35334	0.5	-0.295
_end
