data_functionalizedCrystal
_audit_creation_method	'EQeq! by Chris Wilmer'
_symmetry_space_group_name_H-M	'P1'
_symmetry_Int_Tables_number	1
_symmetry_cell_setting	triclinic
loop_
_symmetry_equiv_pos_as_xyz
  x,y,z
_cell_length_a	10.267
_cell_length_b	32.086
_cell_length_c	6.955
_cell_angle_alpha	90
_cell_angle_beta	90
_cell_angle_gamma	90
loop_
_atom_site_label
_atom_site_type_symbol
_atom_site_fract_x
_atom_site_fract_y
_atom_site_fract_z
_atom_site_charge
Mof_C 	C 	0.0683	0.2303	0.1113	-0.103
Mof_H 	H 	0.1165	0.245	0.0147	0.029
Mof_C 	C 	0.0664	0.18639	0.1113	-0.037
Mof_H 	H 	0.1127	0.1713	0.0136	0.011
Mof_C 	C 	0.5683	0.7303	0.1113	-0.068
Mof_H 	H 	0.6165	0.745	0.0147	0.029
Mof_C 	C 	0.5664	0.68639	0.1113	-0.011
Mof_H 	H 	0.6127	0.6713	0.0136	0.012
Mof_C 	C 	0.9317	0.7697	0.6113	0.009
Mof_H 	H 	0.8835	0.755	0.5147	0.037
Mof_C 	C 	0.9336	0.81361	0.6113	0.094
Mof_H 	H 	0.8873	0.8287	0.5136	0.021
Mof_C 	C 	0.4317	0.2697	0.6113	-0.059
Mof_H 	H 	0.3835	0.255	0.5147	0.043
Mof_C 	C 	0.4336	0.31361	0.6113	-0.02
Mof_H 	H 	0.3873	0.3287	0.5136	0.038
Mof_C 	C 	0.9317	0.2303	0.3887	-0.001
Mof_H 	H 	0.8835	0.245	0.4853	0.052
Mof_C 	C 	0.9336	0.18639	0.3887	0.104
Mof_H 	H 	0.8873	0.1713	0.4864	0.019
Mof_C 	C 	0.4317	0.7303	0.3887	-0.07
Mof_H 	H 	0.3835	0.745	0.4853	0.058
Mof_C 	C 	0.4336	0.68639	0.3887	-0.013
Mof_H 	H 	0.3873	0.6713	0.4864	0.036
Mof_C 	C 	0.0683	0.7697	0.8887	-0.086
Mof_H 	H 	0.1165	0.755	0.9853	0.073
Mof_C 	C 	0.0664	0.81361	0.8887	-0.039
Mof_H 	H 	0.1127	0.8287	0.9864	0.066
Mof_C 	C 	0.5683	0.2697	0.8887	-0.054
Mof_H 	H 	0.6165	0.255	0.9853	0.071
Mof_C 	C 	0.5664	0.31361	0.8887	-0.014
Mof_H 	H 	0.6127	0.3287	0.9864	0.067
Mof_C 	C 	0.9317	0.7697	0.8887	0.01
Mof_H 	H 	0.8835	0.755	0.9853	0.065
Mof_C 	C 	0.9336	0.81361	0.8887	0.094
Mof_H 	H 	0.8873	0.8287	0.9864	0.047
Mof_C 	C 	0.4317	0.2697	0.8887	-0.057
Mof_H 	H 	0.3835	0.255	0.9853	0.072
Mof_C 	C 	0.4336	0.31361	0.8887	-0.018
Mof_H 	H 	0.3873	0.3287	0.9864	0.064
Mof_C 	C 	0.0683	0.2303	0.3887	-0.1
Mof_H 	H 	0.1165	0.245	0.4853	0.058
Mof_C 	C 	0.0664	0.18639	0.3887	-0.035
Mof_H 	H 	0.1127	0.1713	0.4864	0.037
Mof_C 	C 	0.5683	0.7303	0.3887	-0.066
Mof_H 	H 	0.6165	0.745	0.4853	0.058
Mof_C 	C 	0.5664	0.68639	0.3887	-0.009
Mof_H 	H 	0.6127	0.6713	0.4864	0.039
Mof_C 	C 	0.0683	0.7697	0.6113	-0.089
Mof_H 	H 	0.1165	0.755	0.5147	0.044
Mof_C 	C 	0.0664	0.81361	0.6113	-0.042
Mof_H 	H 	0.1127	0.8287	0.5136	0.04
Mof_C 	C 	0.5683	0.2697	0.6113	-0.056
Mof_H 	H 	0.6165	0.255	0.5147	0.043
Mof_C 	C 	0.5664	0.31361	0.6113	-0.016
Mof_H 	H 	0.6127	0.3287	0.5136	0.041
Mof_C 	C 	0.9317	0.2303	0.1113	-0.003
Mof_H 	H 	0.8835	0.245	0.0147	0.023
Mof_C 	C 	0.9336	0.18639	0.1113	0.102
Mof_H 	H 	0.8873	0.1713	0.0136	-0.007
Mof_C 	C 	0.4317	0.7303	0.1113	-0.072
Mof_H 	H 	0.3835	0.745	0.0147	0.028
Mof_C 	C 	0.4336	0.68639	0.1113	-0.015
Mof_H 	H 	0.3873	0.6713	0.0136	0.009
Mof_Zn	Zn	0.5	0.5	0.5	1.174
Mof_Zn	Zn	1.26995e-33	0	0.5	1.146
Mof_Zn	Zn	0.5	0.5	-0	1.15
Mof_Zn	Zn	-0	0	-0	1.122
Mof_Zn	Zn	0.5	0.40393	0.25	1.21
Mof_Zn	Zn	-1.72689e-32	0.90393	0.25	1.191
Mof_Zn	Zn	0.5	0.59607	0.75	1.225
Mof_Zn	Zn	-3.60397e-33	0.09607	0.75	1.205
Mof_O 	O 	0.2353	0.4273	0.25	-0.368
Mof_O 	O 	0.4547	0.46568	0.25	-0.426
Mof_O 	O 	0.3396	0.3695	0.25	-0.498
Mof_C 	C 	0.236	0.3885	0.25	0.375
Mof_C 	C 	0.1144	0.36461	0.25	-0.127
Mof_C 	C 	0.116	0.32058	0.25	0.022
Mof_H 	H 	0.1949	0.3064	0.25	0.023
Mof_O 	O 	0.7353	0.9273	0.25	-0.338
Mof_O 	O 	0.9547	0.96568	0.25	-0.263
Mof_O 	O 	0.8396	0.8695	0.25	-0.462
Mof_C 	C 	0.736	0.8885	0.25	0.383
Mof_C 	C 	0.6144	0.86461	0.25	-0.146
Mof_C 	C 	0.616	0.82058	0.25	0.029
Mof_H 	H 	0.6949	0.8064	0.25	0.023
Mof_O 	O 	0.7647	0.5727	0.75	-0.308
Mof_O 	O 	0.5453	0.53432	0.75	-0.393
Mof_O 	O 	0.6604	0.6305	0.75	-0.448
Mof_C 	C 	0.764	0.6115	0.75	0.356
Mof_C 	C 	0.8856	0.63539	0.75	-0.028
Mof_C 	C 	0.884	0.67942	0.75	0.069
Mof_H 	H 	0.8051	0.6936	0.75	0.034
Mof_O 	O 	0.2647	0.0727	0.75	-0.334
Mof_O 	O 	0.0453	0.03432	0.75	-0.516
Mof_O 	O 	0.1604	0.1305	0.75	-0.466
Mof_C 	C 	0.264	0.1115	0.75	0.384
Mof_C 	C 	0.3856	0.13539	0.75	-0.121
Mof_C 	C 	0.384	0.17942	0.75	0.015
Mof_H 	H 	0.3051	0.1936	0.75	0.044
Mof_O 	O 	0.7647	0.4273	0.25	-0.337
Mof_O 	O 	0.5453	0.46568	0.25	-0.416
Mof_O 	O 	0.6604	0.3695	0.25	-0.492
Mof_C 	C 	0.764	0.3885	0.25	0.368
Mof_C 	C 	0.8856	0.36461	0.25	-0.067
Mof_C 	C 	0.884	0.32058	0.25	0.095
Mof_H 	H 	0.8051	0.3064	0.25	0.005
Mof_O 	O 	0.2647	0.9273	0.25	-0.349
Mof_O 	O 	0.0453	0.96568	0.25	-0.523
Mof_O 	O 	0.1604	0.8695	0.25	-0.508
Mof_C 	C 	0.264	0.8885	0.25	0.392
Mof_C 	C 	0.3856	0.86461	0.25	-0.153
Mof_C 	C 	0.384	0.82058	0.25	0.034
Mof_H 	H 	0.3051	0.8064	0.25	0.016
Mof_O 	O 	0.2353	0.5727	0.75	-0.338
Mof_O 	O 	0.4547	0.53432	0.75	-0.403
Mof_O 	O 	0.3396	0.6305	0.75	-0.453
Mof_C 	C 	0.236	0.6115	0.75	0.363
Mof_C 	C 	0.1144	0.63539	0.75	-0.087
Mof_C 	C 	0.116	0.67942	0.75	-0.001
Mof_H 	H 	0.1949	0.6936	0.75	0.052
Mof_O 	O 	0.7353	0.0727	0.75	-0.324
Mof_O 	O 	0.9547	0.03432	0.75	-0.257
Mof_O 	O 	0.8396	0.1305	0.75	-0.422
Mof_C 	C 	0.736	0.1115	0.75	0.375
Mof_C 	C 	0.6144	0.13539	0.75	-0.115
Mof_C 	C 	0.616	0.17942	0.75	0.01
Mof_H 	H 	0.6949	0.1936	0.75	0.049
Mof_N 	N 	-1.88326e-33	0.05633	0.343	-0.222
Mof_N 	N 	-4.47465e-33	0.09541	0.4072	-0.203
Mof_N 	N 	0.5	0.55633	0.343	-0.204
Mof_N 	N 	0.5	0.59541	0.4072	-0.182
Mof_N 	N 	1.31589e-32	0.94367	0.843	-0.186
Mof_N 	N 	1.88309e-32	0.90459	0.9072	-0.177
Mof_N 	N 	0.5	0.44367	0.843	-0.18
Mof_N 	N 	0.5	0.40459	0.9072	-0.158
Mof_N 	N 	3.98763e-34	0.05633	0.157	-0.234
Mof_N 	N 	-1.83013e-33	0.09541	0.0928	-0.222
Mof_N 	N 	0.5	0.55633	0.157	-0.215
Mof_N 	N 	0.5	0.59541	0.0928	-0.202
Mof_N 	N 	5.67576e-32	0.94367	0.657	-0.203
Mof_N 	N 	5.38401e-32	0.90459	0.5928	-0.197
Mof_N 	N 	0.5	0.44367	0.657	-0.197
Mof_N 	N 	0.5	0.40459	0.5928	-0.178
Mof_C 	C 	4.76664e-33	0.3855	0.25	-0.039
Mof_H 	H 	4.76664e-33	0.4145	0.25	0.036
Mof_C 	C 	4.76664e-33	0.29864	0.25	-0.128
Mof_C 	C 	-1.176e-32	0.25196	0.25	0.004
Mof_C 	C 	-7.4225e-34	0.16507	0.25	-0.191
Mof_C 	C 	-3.49669e-33	0.11868	0.25	0.142
Mof_C 	C 	0.5	0.8855	0.25	0.082
Mof_H 	H 	0.5	0.9145	0.25	0.026
Mof_C 	C 	0.5	0.79864	0.25	-0.069
Mof_C 	C 	0.5	0.75196	0.25	0.084
Mof_C 	C 	0.5	0.66507	0.25	-0.052
Mof_C 	C 	0.5	0.61868	0.25	0.125
Mof_C 	C 	1.29227e-32	0.6145	0.75	-0.066
Mof_H 	H 	1.29227e-32	0.5855	0.75	0.058
Mof_C 	C 	-9.11286e-33	0.70136	0.75	-0.093
Mof_C 	C 	-9.11286e-33	0.74804	0.75	-0.012
Mof_C 	C 	-9.11286e-33	0.83493	0.75	-0.166
Mof_C 	C 	-9.11286e-33	0.88132	0.75	0.153
Mof_C 	C 	0.5	0.1145	0.75	0.061
Mof_H 	H 	0.5	0.0855	0.75	0.037
Mof_C 	C 	0.5	0.20136	0.75	-0.04
Mof_C 	C 	0.5	0.24804	0.75	0.069
Mof_C 	C 	0.5	0.33493	0.75	-0.031
Mof_C 	C 	0.5	0.38132	0.75	0.135
_end
