data_functionalizedCrystal
_audit_creation_method	'EQeq! by Chris Wilmer'
_symmetry_space_group_name_H-M	'P1'
_symmetry_Int_Tables_number	1
_symmetry_cell_setting	triclinic
loop_
_symmetry_equiv_pos_as_xyz
  x,y,z
_cell_length_a	18.401
_cell_length_b	18.401
_cell_length_c	44.057
_cell_angle_alpha	90
_cell_angle_beta	90
_cell_angle_gamma	120
loop_
_atom_site_label
_atom_site_type_symbol
_atom_site_fract_x
_atom_site_fract_y
_atom_site_fract_z
_atom_site_charge
Mof_O 	O 	0.3171	0.514	0.97343	-0.505
Mof_O 	O 	0.1405	0.1541	0.8855	-0.499
Mof_O 	O 	0.4254	0.6337	0.0667	-0.32
Mof_C 	C 	0.2522	0.3709	0.9385	0.001
Mof_H 	H 	0.3087	0.3957	0.9436	0.044
Mof_C 	C 	0.2122	0.2968	0.9216	-0.043
Mof_H 	H 	0.2425	0.2707	0.9162	0.058
Mof_C 	C 	0.4472	0.5884	0.0556	0.201
Mof_C 	C 	0.4826	0.5455	0.07553	-0.029
Mof_C 	C 	0.4956	0.5669	0.1061	-0.021
Mof_H 	H 	0.4824	0.6059	0.1139	0.04
Mof_C 	C 	0.5284	0.53	0.12509	-0.023
Mof_H 	H 	0.5371	0.5443	0.1455	0.041
Mof_C 	C 	0.2569	0.1186	0.78017	-0.032
Mof_C 	C 	0.249	0.1317	0.7496	-0.018
Mof_H 	H 	0.1973	0.1204	0.7415	0.039
Mof_C 	C 	0.5023	0.4945	0.06389	-0.007
Mof_H 	H 	0.4962	0.4846	0.0431	0.027
Mof_O 	O 	0.98377	0.84733	0.30676	-0.495
Mof_O 	O 	0.80717	0.48743	0.21883	-0.494
Mof_O 	O 	0.09207	0.96703	0.40003	-0.314
Mof_C 	C 	0.91887	0.70423	0.27183	0.004
Mof_H 	H 	0.97537	0.72903	0.27693	0.049
Mof_C 	C 	0.87887	0.63013	0.25493	-0.041
Mof_H 	H 	0.90917	0.60403	0.24953	0.062
Mof_C 	C 	0.11387	0.92173	0.38893	0.197
Mof_C 	C 	0.14927	0.87883	0.40886	-0.029
Mof_C 	C 	0.16227	0.90023	0.43943	-0.011
Mof_H 	H 	0.14907	0.93923	0.44723	0.038
Mof_C 	C 	0.19507	0.86333	0.45842	-0.029
Mof_H 	H 	0.20377	0.87763	0.47883	0.044
Mof_C 	C 	0.92357	0.45193	0.1135	-0.025
Mof_C 	C 	0.91567	0.46503	0.08293	-0.021
Mof_H 	H 	0.86397	0.45373	0.07483	0.04
Mof_C 	C 	0.16897	0.82783	0.39722	-0.007
Mof_H 	H 	0.16287	0.81793	0.37643	0.03
Mof_O 	O 	0.65043	0.18067	0.6401	-0.502
Mof_O 	O 	0.47383	0.82077	0.55217	-0.496
Mof_O 	O 	0.75873	0.30037	0.73337	-0.317
Mof_C 	C 	0.58553	0.03757	0.60517	-0.04
Mof_H 	H 	0.64203	0.06237	0.61027	0.058
Mof_C 	C 	0.54553	0.96347	0.58827	0.003
Mof_H 	H 	0.57583	0.93737	0.58287	0.047
Mof_C 	C 	0.78053	0.25507	0.72227	0.197
Mof_C 	C 	0.81593	0.21217	0.7422	-0.031
Mof_C 	C 	0.82893	0.23357	0.77277	-0.014
Mof_H 	H 	0.81573	0.27257	0.78057	0.038
Mof_C 	C 	0.86173	0.19667	0.79176	-0.025
Mof_H 	H 	0.87043	0.21097	0.81217	0.042
Mof_C 	C 	0.59023	0.78527	0.44684	-0.032
Mof_C 	C 	0.58233	0.79837	0.41627	-0.017
Mof_H 	H 	0.53063	0.78707	0.40817	0.039
Mof_C 	C 	0.83563	0.16117	0.73056	-0.007
Mof_H 	H 	0.82953	0.15127	0.70977	0.032
Mof_O 	O 	0.486	0.8031	0.97343	-0.503
Mof_O 	O 	0.8459	0.9864	0.8855	-0.488
Mof_O 	O 	0.3663	0.7917	0.0667	-0.32
Mof_C 	C 	0.6291	0.8813	0.9385	0.006
Mof_H 	H 	0.6043	0.913	0.9436	0.046
Mof_C 	C 	0.7032	0.9154	0.9216	-0.044
Mof_H 	H 	0.7293	0.9718	0.9162	0.063
Mof_C 	C 	0.4116	0.8588	0.0556	0.203
Mof_C 	C 	0.4545	0.9371	0.07553	-0.024
Mof_C 	C 	0.4331	0.9287	0.1061	-0.026
Mof_H 	H 	0.3941	0.8765	0.1139	0.042
Mof_C 	C 	0.47	0.9984	0.12509	-0.014
Mof_H 	H 	0.4557	0.9928	0.1455	0.039
Mof_C 	C 	0.8814	0.1383	0.78017	-0.037
Mof_C 	C 	0.8683	0.1173	0.7496	-0.016
Mof_H 	H 	0.8796	0.0769	0.7415	0.035
Mof_C 	C 	0.5055	0.0078	0.06389	-0.013
Mof_H 	H 	0.5154	0.0116	0.0431	0.026
Mof_O 	O 	0.15267	0.13643	0.30676	-0.506
Mof_O 	O 	0.51257	0.31973	0.21883	-0.495
Mof_O 	O 	0.03297	0.12503	0.40003	-0.327
Mof_C 	C 	0.29577	0.21463	0.27183	0.004
Mof_H 	H 	0.27097	0.24633	0.27693	0.044
Mof_C 	C 	0.36987	0.24873	0.25493	-0.044
Mof_H 	H 	0.39597	0.30513	0.24953	0.06
Mof_C 	C 	0.07827	0.19213	0.38893	0.208
Mof_C 	C 	0.12117	0.27043	0.40886	-0.03
Mof_C 	C 	0.09977	0.26203	0.43943	-0.03
Mof_H 	H 	0.06077	0.20983	0.44723	0.04
Mof_C 	C 	0.13667	0.33173	0.45842	-0.017
Mof_H 	H 	0.12237	0.32613	0.47883	0.037
Mof_C 	C 	0.54807	0.47163	0.1135	-0.034
Mof_C 	C 	0.53497	0.45063	0.08293	-0.017
Mof_H 	H 	0.54627	0.41023	0.07483	0.039
Mof_C 	C 	0.17217	0.34113	0.39722	-0.007
Mof_H 	H 	0.18207	0.34493	0.37643	0.024
Mof_O 	O 	0.81933	0.46977	0.6401	-0.505
Mof_O 	O 	0.17923	0.65307	0.55217	-0.494
Mof_O 	O 	0.69963	0.45837	0.73337	-0.321
Mof_C 	C 	0.96243	0.54797	0.60517	0.034
Mof_H 	H 	0.93763	0.57967	0.61027	0.036
Mof_C 	C 	0.03653	0.58207	0.58827	-0.074
Mof_H 	H 	0.06263	0.63847	0.58287	0.069
Mof_C 	C 	0.74493	0.52547	0.72227	0.206
Mof_C 	C 	0.78783	0.60377	0.7422	-0.029
Mof_C 	C 	0.76643	0.59537	0.77277	-0.025
Mof_H 	H 	0.72743	0.54317	0.78057	0.041
Mof_C 	C 	0.80333	0.66507	0.79176	-0.02
Mof_H 	H 	0.78903	0.65947	0.81217	0.04
Mof_C 	C 	0.21473	0.80497	0.44684	-0.037
Mof_C 	C 	0.20163	0.78397	0.41627	-0.016
Mof_H 	H 	0.21293	0.74357	0.40817	0.038
Mof_C 	C 	0.83883	0.67447	0.73056	-0.007
Mof_H 	H 	0.84873	0.67827	0.70977	0.025
Mof_O 	O 	0.1969	0.6829	0.97343	-0.504
Mof_O 	O 	0.0136	0.8595	0.8855	-0.496
Mof_O 	O 	0.2083	0.5746	0.0667	-0.321
Mof_C 	C 	0.1187	0.7478	0.9385	0.004
Mof_H 	H 	0.087	0.6913	0.9436	0.044
Mof_C 	C 	0.0846	0.7878	0.9216	-0.044
Mof_H 	H 	0.0282	0.7575	0.9162	0.059
Mof_C 	C 	0.1412	0.5528	0.0556	0.205
Mof_C 	C 	0.0629	0.5174	0.07553	-0.037
Mof_C 	C 	0.0713	0.5044	0.1061	-0.019
Mof_H 	H 	0.1235	0.5176	0.1139	0.038
Mof_C 	C 	0.0016	0.4716	0.12509	-0.031
Mof_H 	H 	0.0072	0.4629	0.1455	0.04
Mof_C 	C 	0.8617	0.7431	0.78017	-0.031
Mof_C 	C 	0.8827	0.751	0.7496	-0.018
Mof_H 	H 	0.9231	0.8027	0.7415	0.041
Mof_C 	C 	0.9922	0.4977	0.06389	0.001
Mof_H 	H 	0.9884	0.5038	0.0431	0.025
Mof_O 	O 	0.86357	0.01623	0.30676	-0.505
Mof_O 	O 	0.68027	0.19283	0.21883	-0.496
Mof_O 	O 	0.87497	0.90793	0.40003	-0.317
Mof_C 	C 	0.78537	0.08113	0.27183	0.003
Mof_H 	H 	0.75367	0.02463	0.27693	0.043
Mof_C 	C 	0.75127	0.12113	0.25493	-0.043
Mof_H 	H 	0.69487	0.09083	0.24953	0.059
Mof_C 	C 	0.80787	0.88613	0.38893	0.205
Mof_C 	C 	0.72957	0.85073	0.40886	-0.028
Mof_C 	C 	0.73797	0.83773	0.43943	-0.027
Mof_H 	H 	0.79017	0.85093	0.44723	0.044
Mof_C 	C 	0.66827	0.80493	0.45842	-0.019
Mof_H 	H 	0.67387	0.79623	0.47883	0.04
Mof_C 	C 	0.52837	0.07643	0.1135	-0.037
Mof_C 	C 	0.54937	0.08433	0.08293	-0.015
Mof_H 	H 	0.58977	0.13603	0.07483	0.038
Mof_C 	C 	0.65887	0.83103	0.39722	-0.007
Mof_H 	H 	0.65507	0.83713	0.37643	0.025
Mof_O 	O 	0.53023	0.34957	0.6401	-0.504
Mof_O 	O 	0.34693	0.52617	0.55217	-0.495
Mof_O 	O 	0.54163	0.24127	0.73337	-0.323
Mof_C 	C 	0.45203	0.41447	0.60517	0.004
Mof_H 	H 	0.42033	0.35797	0.61027	0.045
Mof_C 	C 	0.41793	0.45447	0.58827	-0.043
Mof_H 	H 	0.36153	0.42417	0.58287	0.06
Mof_C 	C 	0.47453	0.21947	0.72227	0.208
Mof_C 	C 	0.39623	0.18407	0.7422	-0.028
Mof_C 	C 	0.40463	0.17107	0.77277	-0.03
Mof_H 	H 	0.45683	0.18427	0.78057	0.042
Mof_C 	C 	0.33493	0.13827	0.79176	-0.019
Mof_H 	H 	0.34053	0.12957	0.81217	0.038
Mof_C 	C 	0.19503	0.40977	0.44684	-0.031
Mof_C 	C 	0.21603	0.41767	0.41627	-0.018
Mof_H 	H 	0.25643	0.46937	0.40817	0.039
Mof_C 	C 	0.32553	0.16437	0.73056	-0.008
Mof_H 	H 	0.32173	0.17047	0.70977	0.022
Mof_O 	O 	0.486	0.6829	0.97343	-0.504
Mof_O 	O 	0.8459	0.8595	0.8855	-0.492
Mof_O 	O 	0.3663	0.5746	0.0667	-0.321
Mof_C 	C 	0.6291	0.7478	0.9385	0.005
Mof_H 	H 	0.6043	0.6913	0.9436	0.045
Mof_C 	C 	0.7032	0.7878	0.9216	-0.044
Mof_H 	H 	0.7293	0.7575	0.9162	0.061
Mof_C 	C 	0.4116	0.5528	0.0556	0.204
Mof_C 	C 	0.4545	0.5174	0.07553	-0.029
Mof_C 	C 	0.4331	0.5044	0.1061	-0.025
Mof_H 	H 	0.3941	0.5176	0.1139	0.041
Mof_C 	C 	0.47	0.4716	0.12509	-0.02
Mof_H 	H 	0.4557	0.4629	0.1455	0.04
Mof_C 	C 	0.8814	0.7431	0.78017	-0.033
Mof_C 	C 	0.8683	0.751	0.7496	-0.017
Mof_H 	H 	0.8796	0.8027	0.7415	0.039
Mof_C 	C 	0.5055	0.4977	0.06389	-0.007
Mof_H 	H 	0.5154	0.5038	0.0431	0.026
Mof_O 	O 	0.15267	0.01623	0.30676	-0.509
Mof_O 	O 	0.51257	0.19283	0.21883	-0.496
Mof_O 	O 	0.03297	0.90793	0.40003	-0.325
Mof_C 	C 	0.29577	0.08113	0.27183	0.004
Mof_H 	H 	0.27097	0.02463	0.27693	0.043
Mof_C 	C 	0.36987	0.12113	0.25493	-0.044
Mof_H 	H 	0.39597	0.09083	0.24953	0.059
Mof_C 	C 	0.07827	0.88613	0.38893	0.209
Mof_C 	C 	0.12117	0.85073	0.40886	-0.029
Mof_C 	C 	0.09977	0.83773	0.43943	-0.034
Mof_H 	H 	0.06077	0.85093	0.44723	0.043
Mof_C 	C 	0.13667	0.80493	0.45842	-0.014
Mof_H 	H 	0.12237	0.79623	0.47883	0.037
Mof_C 	C 	0.54807	0.07643	0.1135	-0.038
Mof_C 	C 	0.53497	0.08433	0.08293	-0.015
Mof_H 	H 	0.54627	0.13603	0.07483	0.038
Mof_C 	C 	0.17217	0.83103	0.39722	-0.008
Mof_H 	H 	0.18207	0.83713	0.37643	0.022
Mof_O 	O 	0.81933	0.34957	0.6401	-0.505
Mof_O 	O 	0.17923	0.52617	0.55217	-0.495
Mof_O 	O 	0.69963	0.24127	0.73337	-0.323
Mof_C 	C 	0.96243	0.41447	0.60517	0.034
Mof_H 	H 	0.93763	0.35797	0.61027	0.036
Mof_C 	C 	0.03653	0.45447	0.58827	-0.075
Mof_H 	H 	0.06263	0.42417	0.58287	0.069
Mof_C 	C 	0.74493	0.21947	0.72227	0.21
Mof_C 	C 	0.78783	0.18407	0.7422	-0.028
Mof_C 	C 	0.76643	0.17107	0.77277	-0.032
Mof_H 	H 	0.72743	0.18427	0.78057	0.043
Mof_C 	C 	0.80333	0.13827	0.79176	-0.018
Mof_H 	H 	0.78903	0.12957	0.81217	0.038
Mof_C 	C 	0.21473	0.40977	0.44684	-0.035
Mof_C 	C 	0.20163	0.41767	0.41627	-0.017
Mof_H 	H 	0.21293	0.46937	0.40817	0.038
Mof_C 	C 	0.83883	0.16437	0.73056	-0.008
Mof_H 	H 	0.84873	0.17047	0.70977	0.021
Mof_O 	O 	0.1969	0.514	0.97343	-0.504
Mof_O 	O 	0.0136	0.1541	0.8855	-0.5
Mof_O 	O 	0.2083	0.6337	0.0667	-0.321
Mof_C 	C 	0.1187	0.3709	0.9385	0.002
Mof_H 	H 	0.087	0.3957	0.9436	0.044
Mof_C 	C 	0.0846	0.2968	0.9216	-0.042
Mof_H 	H 	0.0282	0.2707	0.9162	0.057
Mof_C 	C 	0.1412	0.5884	0.0556	0.204
Mof_C 	C 	0.0629	0.5455	0.07553	-0.037
Mof_C 	C 	0.0713	0.5669	0.1061	-0.017
Mof_H 	H 	0.1235	0.6059	0.1139	0.038
Mof_C 	C 	0.0016	0.53	0.12509	-0.032
Mof_H 	H 	0.0072	0.5443	0.1455	0.041
Mof_C 	C 	0.8617	0.1186	0.78017	-0.03
Mof_C 	C 	0.8827	0.1317	0.7496	-0.018
Mof_H 	H 	0.9231	0.1204	0.7415	0.041
Mof_C 	C 	0.9922	0.4945	0.06389	0.001
Mof_H 	H 	0.9884	0.4846	0.0431	0.026
Mof_O 	O 	0.86357	0.84733	0.30676	-0.501
Mof_O 	O 	0.68027	0.48743	0.21883	-0.495
Mof_O 	O 	0.87497	0.96703	0.40003	-0.313
Mof_C 	C 	0.78537	0.70423	0.27183	0.003
Mof_H 	H 	0.75367	0.72903	0.27693	0.045
Mof_C 	C 	0.75127	0.63013	0.25493	-0.042
Mof_H 	H 	0.69487	0.60403	0.24953	0.06
Mof_C 	C 	0.80787	0.92173	0.38893	0.2
Mof_C 	C 	0.72957	0.87883	0.40886	-0.028
Mof_C 	C 	0.73797	0.90023	0.43943	-0.019
Mof_H 	H 	0.79017	0.93923	0.44723	0.042
Mof_C 	C 	0.66827	0.86333	0.45842	-0.023
Mof_H 	H 	0.67387	0.87763	0.47883	0.043
Mof_C 	C 	0.52837	0.45193	0.1135	-0.032
Mof_C 	C 	0.54937	0.46503	0.08293	-0.017
Mof_H 	H 	0.58977	0.45373	0.07483	0.039
Mof_C 	C 	0.65887	0.82783	0.39722	-0.007
Mof_H 	H 	0.65507	0.81793	0.37643	0.028
Mof_O 	O 	0.53023	0.18067	0.6401	-0.502
Mof_O 	O 	0.34693	0.82077	0.55217	-0.497
Mof_O 	O 	0.54163	0.30037	0.73337	-0.318
Mof_C 	C 	0.45203	0.03757	0.60517	-0.04
Mof_H 	H 	0.42033	0.06237	0.61027	0.058
Mof_C 	C 	0.41793	0.96347	0.58827	0.003
Mof_H 	H 	0.36153	0.93737	0.58287	0.047
Mof_C 	C 	0.47453	0.25507	0.72227	0.199
Mof_C 	C 	0.39623	0.21217	0.7422	-0.03
Mof_C 	C 	0.40463	0.23357	0.77277	-0.017
Mof_H 	H 	0.45683	0.27257	0.78057	0.038
Mof_C 	C 	0.33493	0.19667	0.79176	-0.024
Mof_H 	H 	0.34053	0.21097	0.81217	0.041
Mof_C 	C 	0.19503	0.78527	0.44684	-0.029
Mof_C 	C 	0.21603	0.79837	0.41627	-0.018
Mof_H 	H 	0.25643	0.78707	0.40817	0.04
Mof_C 	C 	0.32553	0.16117	0.73056	-0.008
Mof_H 	H 	0.32173	0.15127	0.70977	0.03
Mof_O 	O 	0.3171	0.8031	0.97343	-0.503
Mof_O 	O 	0.1405	0.9864	0.8855	-0.489
Mof_O 	O 	0.4254	0.7917	0.0667	-0.319
Mof_C 	C 	0.2522	0.8813	0.9385	0.005
Mof_H 	H 	0.3087	0.913	0.9436	0.046
Mof_C 	C 	0.2122	0.9154	0.9216	-0.043
Mof_H 	H 	0.2425	0.9718	0.9162	0.063
Mof_C 	C 	0.4472	0.8588	0.0556	0.202
Mof_C 	C 	0.4826	0.9371	0.07553	-0.024
Mof_C 	C 	0.4956	0.9287	0.1061	-0.025
Mof_H 	H 	0.4824	0.8765	0.1139	0.042
Mof_C 	C 	0.5284	0.9984	0.12509	-0.016
Mof_H 	H 	0.5371	0.9928	0.1455	0.04
Mof_C 	C 	0.2569	0.1383	0.78017	-0.036
Mof_C 	C 	0.249	0.1173	0.7496	-0.016
Mof_H 	H 	0.1973	0.0769	0.7415	0.035
Mof_C 	C 	0.5023	0.0078	0.06389	-0.013
Mof_H 	H 	0.4962	0.0116	0.0431	0.027
Mof_O 	O 	0.98377	0.13643	0.30676	-0.496
Mof_O 	O 	0.80717	0.31973	0.21883	-0.494
Mof_O 	O 	0.09207	0.12503	0.40003	-0.32
Mof_C 	C 	0.91887	0.21463	0.27183	0.004
Mof_H 	H 	0.97537	0.24633	0.27693	0.049
Mof_C 	C 	0.87887	0.24873	0.25493	-0.042
Mof_H 	H 	0.90917	0.30513	0.24953	0.062
Mof_C 	C 	0.11387	0.19213	0.38893	0.2
Mof_C 	C 	0.14927	0.27043	0.40886	-0.03
Mof_C 	C 	0.16227	0.26203	0.43943	-0.015
Mof_H 	H 	0.14907	0.20983	0.44723	0.036
Mof_C 	C 	0.19507	0.33173	0.45842	-0.027
Mof_H 	H 	0.20377	0.32613	0.47883	0.041
Mof_C 	C 	0.92357	0.47163	0.1135	-0.026
Mof_C 	C 	0.91567	0.45063	0.08293	-0.02
Mof_H 	H 	0.86397	0.41023	0.07483	0.04
Mof_C 	C 	0.16897	0.34113	0.39722	-0.007
Mof_H 	H 	0.16287	0.34493	0.37643	0.028
Mof_O 	O 	0.65043	0.46977	0.6401	-0.504
Mof_O 	O 	0.47383	0.65307	0.55217	-0.495
Mof_O 	O 	0.75873	0.45837	0.73337	-0.319
Mof_C 	C 	0.58553	0.54797	0.60517	0.004
Mof_H 	H 	0.64203	0.57967	0.61027	0.045
Mof_C 	C 	0.54553	0.58207	0.58827	-0.043
Mof_H 	H 	0.57583	0.63847	0.58287	0.061
Mof_C 	C 	0.78053	0.52547	0.72227	0.202
Mof_C 	C 	0.81593	0.60377	0.7422	-0.03
Mof_C 	C 	0.82893	0.59537	0.77277	-0.019
Mof_H 	H 	0.81573	0.54317	0.78057	0.04
Mof_C 	C 	0.86173	0.66507	0.79176	-0.023
Mof_H 	H 	0.87043	0.65947	0.81217	0.042
Mof_C 	C 	0.59023	0.80497	0.44684	-0.034
Mof_C 	C 	0.58233	0.78397	0.41627	-0.017
Mof_H 	H 	0.53063	0.74357	0.40817	0.038
Mof_C 	C 	0.83563	0.67447	0.73056	-0.007
Mof_H 	H 	0.82953	0.67827	0.70977	0.028
Mof_Zn	Zn	0.38975	0.61025	0.99952	1.213
Mof_O 	O 	0.4358	0.5642	0.02825	-0.477
Mof_Zn	Zn	0.05642	0.94358	0.33285	1.214
Mof_O 	O 	0.10247	0.89753	0.36158	-0.477
Mof_Zn	Zn	0.72308	0.27692	0.66619	1.213
Mof_O 	O 	0.76913	0.23087	0.69492	-0.478
Mof_Zn	Zn	0.38975	0.7795	0.99952	1.213
Mof_O 	O 	0.4358	0.8716	0.02825	-0.475
Mof_Zn	Zn	0.05642	0.11283	0.33285	1.211
Mof_O 	O 	0.10247	0.20493	0.36158	-0.48
Mof_Zn	Zn	0.72308	0.44617	0.66619	1.213
Mof_O 	O 	0.76913	0.53827	0.69492	-0.477
Mof_Zn	Zn	0.2205	0.61025	0.99952	1.213
Mof_O 	O 	0.1284	0.5642	0.02825	-0.48
Mof_Zn	Zn	0.88717	0.94358	0.33285	1.217
Mof_O 	O 	0.79507	0.89753	0.36158	-0.474
Mof_Zn	Zn	0.55383	0.27692	0.66619	1.213
Mof_O 	O 	0.46173	0.23087	0.69492	-0.478
Mof_Zn	Zn	0.33333	0.66667	0.06086	1.217
Mof_O 	O 	0.33333	0.66667	0.0149	-0.94
Mof_Zn	Zn	1.56319e-32	1.56319e-32	0.39419	1.212
Mof_O 	O 	-0	-1.56319e-32	0.34823	-0.951
Mof_Zn	Zn	0.66667	0.33333	0.72753	1.217
Mof_O 	O 	0.66667	0.33333	0.68157	-0.94
Mof_Zn	Zn	0.11572	0.05786	0.86264	1.213
Mof_O 	O 	0.1117	0.05585	0.78663	-0.515
Mof_O 	O 	0.1923	0.09615	0.82808	-0.515
Mof_C 	C 	0.1797	0.08985	0.8001	0.392
Mof_Zn	Zn	0.78239	0.39119	0.19597	1.216
Mof_O 	O 	0.77837	0.38918	0.11996	-0.509
Mof_O 	O 	0.85897	0.42948	0.16141	-0.508
Mof_C 	C 	0.84637	0.42318	0.13343	0.388
Mof_Zn	Zn	0.44905	0.72453	0.52931	1.216
Mof_O 	O 	0.44503	0.72252	0.4533	-0.51
Mof_O 	O 	0.52563	0.76282	0.49475	-0.511
Mof_C 	C 	0.51303	0.75652	0.46677	0.392
Mof_Zn	Zn	0.94214	0.05786	0.86264	1.216
Mof_O 	O 	0.94415	0.05585	0.78663	-0.51
Mof_O 	O 	0.90385	0.09615	0.82808	-0.512
Mof_C 	C 	0.91015	0.08985	0.8001	0.391
Mof_Zn	Zn	0.60881	0.39119	0.19597	1.216
Mof_O 	O 	0.61082	0.38918	0.11996	-0.51
Mof_O 	O 	0.57052	0.42948	0.16141	-0.512
Mof_C 	C 	0.57682	0.42318	0.13343	0.392
Mof_Zn	Zn	0.27547	0.72453	0.52931	1.216
Mof_O 	O 	0.27748	0.72252	0.4533	-0.51
Mof_O 	O 	0.23718	0.76282	0.49475	-0.512
Mof_C 	C 	0.24348	0.75652	0.46677	0.392
Mof_Zn	Zn	0.94214	0.88428	0.86264	1.219
Mof_O 	O 	0.94415	0.8883	0.78663	-0.502
Mof_O 	O 	0.90385	0.8077	0.82808	-0.509
Mof_C 	C 	0.91015	0.8203	0.8001	0.391
Mof_Zn	Zn	0.60881	0.21761	0.19597	1.215
Mof_O 	O 	0.61082	0.22163	0.11996	-0.511
Mof_O 	O 	0.57052	0.14103	0.16141	-0.514
Mof_C 	C 	0.57682	0.15363	0.13343	0.394
Mof_Zn	Zn	0.27547	0.55095	0.52931	1.215
Mof_O 	O 	0.27748	0.55497	0.4533	-0.51
Mof_O 	O 	0.23718	0.47437	0.49475	-0.513
Mof_C 	C 	0.24348	0.48697	0.46677	0.391
Mof_Zn	Zn	3.12638e-32	3.12638e-32	0.80456	1.208
Mof_O 	O 	-3.12638e-32	-3.12638e-32	0.848	-0.97
Mof_Zn	Zn	0.66667	0.33333	0.13789	1.212
Mof_O 	O 	0.66667	0.33333	0.18133	-0.96
Mof_Zn	Zn	0.33333	0.66667	0.47123	1.212
Mof_O 	O 	0.33333	0.66667	0.51467	-0.96
Mof_C 	C 	0.24145	0.4829	0.9664	0.407
Mof_C 	C 	0.20335	0.4067	0.9476	-0.107
Mof_C 	C 	0.09075	0.1815	0.8938	0.32
Mof_C 	C 	0.13065	0.2613	0.9128	-0.049
Mof_C 	C 	0.90812	0.81623	0.29973	0.406
Mof_C 	C 	0.87002	0.74003	0.28093	-0.105
Mof_C 	C 	0.75742	0.51483	0.22713	0.32
Mof_C 	C 	0.79732	0.59463	0.24613	-0.047
Mof_C 	C 	0.57478	0.14957	0.63307	0.396
Mof_C 	C 	0.53668	0.07337	0.61427	-0.082
Mof_C 	C 	0.42408	0.84817	0.56047	0.33
Mof_C 	C 	0.46398	0.92797	0.57947	-0.077
Mof_C 	C 	0.5171	0.75855	0.9664	0.408
Mof_C 	C 	0.5933	0.79665	0.9476	-0.108
Mof_C 	C 	0.8185	0.90925	0.8938	0.319
Mof_C 	C 	0.7387	0.86935	0.9128	-0.044
Mof_C 	C 	0.18377	0.09188	0.29973	0.408
Mof_C 	C 	0.25997	0.12998	0.28093	-0.109
Mof_C 	C 	0.48517	0.24258	0.22713	0.319
Mof_C 	C 	0.40537	0.20268	0.24613	-0.047
Mof_C 	C 	0.85043	0.42522	0.63307	0.415
Mof_C 	C 	0.92663	0.46332	0.61427	-0.125
Mof_C 	C 	0.15183	0.57592	0.56047	0.312
Mof_C 	C 	0.07203	0.53602	0.57947	-0.027
Mof_C 	C 	0.24145	0.75855	0.9664	0.407
Mof_C 	C 	0.20335	0.79665	0.9476	-0.108
Mof_C 	C 	0.09075	0.90925	0.8938	0.319
Mof_C 	C 	0.13065	0.86935	0.9128	-0.046
Mof_C 	C 	0.90812	0.09188	0.29973	0.407
Mof_C 	C 	0.87002	0.12998	0.28093	-0.106
Mof_C 	C 	0.75742	0.24258	0.22713	0.32
Mof_C 	C 	0.79732	0.20268	0.24613	-0.047
Mof_C 	C 	0.57478	0.42522	0.63307	0.407
Mof_C 	C 	0.53668	0.46332	0.61427	-0.107
Mof_C 	C 	0.42408	0.57592	0.56047	0.319
Mof_C 	C 	0.46398	0.53602	0.57947	-0.047
Mof_O 	O 	0.514	0.3171	0.02657	-0.504
Mof_O 	O 	0.1541	0.1405	0.1145	-0.498
Mof_O 	O 	0.6337	0.4254	0.9333	-0.319
Mof_C 	C 	0.3709	0.2522	0.0615	0.002
Mof_H 	H 	0.3957	0.3087	0.0564	0.045
Mof_C 	C 	0.2968	0.2122	0.0784	-0.042
Mof_H 	H 	0.2707	0.2425	0.0838	0.059
Mof_C 	C 	0.5884	0.4472	0.9444	0.202
Mof_C 	C 	0.5455	0.4826	0.92447	-0.029
Mof_C 	C 	0.5669	0.4956	0.8939	-0.021
Mof_H 	H 	0.6059	0.4824	0.8861	0.04
Mof_C 	C 	0.53	0.5284	0.87491	-0.023
Mof_H 	H 	0.5443	0.5371	0.8545	0.041
Mof_C 	C 	0.1186	0.2569	0.21983	-0.032
Mof_C 	C 	0.1317	0.249	0.2504	-0.018
Mof_H 	H 	0.1204	0.1973	0.2585	0.039
Mof_C 	C 	0.4945	0.5023	0.93611	-0.007
Mof_H 	H 	0.4846	0.4962	0.9569	0.027
Mof_O 	O 	0.18067	0.65043	0.3599	-0.502
Mof_O 	O 	0.82077	0.47383	0.44783	-0.496
Mof_O 	O 	0.30037	0.75873	0.26663	-0.317
Mof_C 	C 	0.03757	0.58553	0.39483	-0.04
Mof_H 	H 	0.06237	0.64203	0.38973	0.058
Mof_C 	C 	0.96347	0.54553	0.41173	0.003
Mof_H 	H 	0.93737	0.57583	0.41713	0.047
Mof_C 	C 	0.25507	0.78053	0.27773	0.197
Mof_C 	C 	0.21217	0.81593	0.2578	-0.031
Mof_C 	C 	0.23357	0.82893	0.22723	-0.014
Mof_H 	H 	0.27257	0.81573	0.21943	0.038
Mof_C 	C 	0.19667	0.86173	0.20824	-0.025
Mof_H 	H 	0.21097	0.87043	0.18783	0.042
Mof_C 	C 	0.78527	0.59023	0.55316	-0.032
Mof_C 	C 	0.79837	0.58233	0.58373	-0.017
Mof_H 	H 	0.78707	0.53063	0.59183	0.039
Mof_C 	C 	0.16117	0.83563	0.26944	-0.007
Mof_H 	H 	0.15127	0.82953	0.29023	0.032
Mof_O 	O 	0.84733	0.98377	0.69324	-0.495
Mof_O 	O 	0.48743	0.80717	0.78117	-0.494
Mof_O 	O 	0.96703	0.09207	0.59997	-0.314
Mof_C 	C 	0.70423	0.91887	0.72817	0.004
Mof_H 	H 	0.72903	0.97537	0.72307	0.049
Mof_C 	C 	0.63013	0.87887	0.74507	-0.041
Mof_H 	H 	0.60403	0.90917	0.75047	0.062
Mof_C 	C 	0.92173	0.11387	0.61107	0.197
Mof_C 	C 	0.87883	0.14927	0.59114	-0.029
Mof_C 	C 	0.90023	0.16227	0.56057	-0.011
Mof_H 	H 	0.93923	0.14907	0.55277	0.038
Mof_C 	C 	0.86333	0.19507	0.54158	-0.029
Mof_H 	H 	0.87763	0.20377	0.52117	0.044
Mof_C 	C 	0.45193	0.92357	0.8865	-0.025
Mof_C 	C 	0.46503	0.91567	0.91707	-0.021
Mof_H 	H 	0.45373	0.86397	0.92517	0.04
Mof_C 	C 	0.82783	0.16897	0.60278	-0.007
Mof_H 	H 	0.81793	0.16287	0.62357	0.03
Mof_O 	O 	0.8031	0.486	0.02657	-0.503
Mof_O 	O 	0.9864	0.8459	0.1145	-0.488
Mof_O 	O 	0.7917	0.3663	0.9333	-0.32
Mof_C 	C 	0.8813	0.6291	0.0615	0.006
Mof_H 	H 	0.913	0.6043	0.0564	0.046
Mof_C 	C 	0.9154	0.7032	0.0784	-0.044
Mof_H 	H 	0.9718	0.7293	0.0838	0.063
Mof_C 	C 	0.8588	0.4116	0.9444	0.203
Mof_C 	C 	0.9371	0.4545	0.92447	-0.024
Mof_C 	C 	0.9287	0.4331	0.8939	-0.026
Mof_H 	H 	0.8765	0.3941	0.8861	0.042
Mof_C 	C 	0.9984	0.47	0.87491	-0.014
Mof_H 	H 	0.9928	0.4557	0.8545	0.039
Mof_C 	C 	0.1383	0.8814	0.21983	-0.037
Mof_C 	C 	0.1173	0.8683	0.2504	-0.016
Mof_H 	H 	0.0769	0.8796	0.2585	0.035
Mof_C 	C 	0.0078	0.5055	0.93611	-0.013
Mof_H 	H 	0.0116	0.5154	0.9569	0.026
Mof_O 	O 	0.46977	0.81933	0.3599	-0.505
Mof_O 	O 	0.65307	0.17923	0.44783	-0.494
Mof_O 	O 	0.45837	0.69963	0.26663	-0.321
Mof_C 	C 	0.54797	0.96243	0.39483	0.034
Mof_H 	H 	0.57967	0.93763	0.38973	0.036
Mof_C 	C 	0.58207	0.03653	0.41173	-0.074
Mof_H 	H 	0.63847	0.06263	0.41713	0.069
Mof_C 	C 	0.52547	0.74493	0.27773	0.206
Mof_C 	C 	0.60377	0.78783	0.2578	-0.029
Mof_C 	C 	0.59537	0.76643	0.22723	-0.025
Mof_H 	H 	0.54317	0.72743	0.21943	0.041
Mof_C 	C 	0.66507	0.80333	0.20824	-0.02
Mof_H 	H 	0.65947	0.78903	0.18783	0.04
Mof_C 	C 	0.80497	0.21473	0.55316	-0.037
Mof_C 	C 	0.78397	0.20163	0.58373	-0.016
Mof_H 	H 	0.74357	0.21293	0.59183	0.038
Mof_C 	C 	0.67447	0.83883	0.26944	-0.007
Mof_H 	H 	0.67827	0.84873	0.29023	0.025
Mof_O 	O 	0.13643	0.15267	0.69324	-0.506
Mof_O 	O 	0.31973	0.51257	0.78117	-0.495
Mof_O 	O 	0.12503	0.03297	0.59997	-0.327
Mof_C 	C 	0.21463	0.29577	0.72817	0.004
Mof_H 	H 	0.24633	0.27097	0.72307	0.044
Mof_C 	C 	0.24873	0.36987	0.74507	-0.044
Mof_H 	H 	0.30513	0.39597	0.75047	0.06
Mof_C 	C 	0.19213	0.07827	0.61107	0.208
Mof_C 	C 	0.27043	0.12117	0.59114	-0.03
Mof_C 	C 	0.26203	0.09977	0.56057	-0.03
Mof_H 	H 	0.20983	0.06077	0.55277	0.04
Mof_C 	C 	0.33173	0.13667	0.54158	-0.017
Mof_H 	H 	0.32613	0.12237	0.52117	0.037
Mof_C 	C 	0.47163	0.54807	0.8865	-0.034
Mof_C 	C 	0.45063	0.53497	0.91707	-0.017
Mof_H 	H 	0.41023	0.54627	0.92517	0.039
Mof_C 	C 	0.34113	0.17217	0.60278	-0.007
Mof_H 	H 	0.34493	0.18207	0.62357	0.024
Mof_O 	O 	0.6829	0.1969	0.02657	-0.504
Mof_O 	O 	0.8595	0.0136	0.1145	-0.496
Mof_O 	O 	0.5746	0.2083	0.9333	-0.321
Mof_C 	C 	0.7478	0.1187	0.0615	0.004
Mof_H 	H 	0.6913	0.087	0.0564	0.044
Mof_C 	C 	0.7878	0.0846	0.0784	-0.044
Mof_H 	H 	0.7575	0.0282	0.0838	0.059
Mof_C 	C 	0.5528	0.1412	0.9444	0.205
Mof_C 	C 	0.5174	0.0629	0.92447	-0.037
Mof_C 	C 	0.5044	0.0713	0.8939	-0.019
Mof_H 	H 	0.5176	0.1235	0.8861	0.038
Mof_C 	C 	0.4716	0.0016	0.87491	-0.031
Mof_H 	H 	0.4629	0.0072	0.8545	0.04
Mof_C 	C 	0.7431	0.8617	0.21983	-0.031
Mof_C 	C 	0.751	0.8827	0.2504	-0.018
Mof_H 	H 	0.8027	0.9231	0.2585	0.041
Mof_C 	C 	0.4977	0.9922	0.93611	0.001
Mof_H 	H 	0.5038	0.9884	0.9569	0.025
Mof_O 	O 	0.34957	0.53023	0.3599	-0.504
Mof_O 	O 	0.52617	0.34693	0.44783	-0.495
Mof_O 	O 	0.24127	0.54163	0.26663	-0.323
Mof_C 	C 	0.41447	0.45203	0.39483	0.004
Mof_H 	H 	0.35797	0.42033	0.38973	0.045
Mof_C 	C 	0.45447	0.41793	0.41173	-0.043
Mof_H 	H 	0.42417	0.36153	0.41713	0.06
Mof_C 	C 	0.21947	0.47453	0.27773	0.208
Mof_C 	C 	0.18407	0.39623	0.2578	-0.028
Mof_C 	C 	0.17107	0.40463	0.22723	-0.03
Mof_H 	H 	0.18427	0.45683	0.21943	0.042
Mof_C 	C 	0.13827	0.33493	0.20824	-0.019
Mof_H 	H 	0.12957	0.34053	0.18783	0.038
Mof_C 	C 	0.40977	0.19503	0.55316	-0.031
Mof_C 	C 	0.41767	0.21603	0.58373	-0.018
Mof_H 	H 	0.46937	0.25643	0.59183	0.039
Mof_C 	C 	0.16437	0.32553	0.26944	-0.008
Mof_H 	H 	0.17047	0.32173	0.29023	0.022
Mof_O 	O 	0.01623	0.86357	0.69324	-0.505
Mof_O 	O 	0.19283	0.68027	0.78117	-0.496
Mof_O 	O 	0.90793	0.87497	0.59997	-0.317
Mof_C 	C 	0.08113	0.78537	0.72817	0.003
Mof_H 	H 	0.02463	0.75367	0.72307	0.043
Mof_C 	C 	0.12113	0.75127	0.74507	-0.043
Mof_H 	H 	0.09083	0.69487	0.75047	0.059
Mof_C 	C 	0.88613	0.80787	0.61107	0.205
Mof_C 	C 	0.85073	0.72957	0.59114	-0.028
Mof_C 	C 	0.83773	0.73797	0.56057	-0.027
Mof_H 	H 	0.85093	0.79017	0.55277	0.044
Mof_C 	C 	0.80493	0.66827	0.54158	-0.019
Mof_H 	H 	0.79623	0.67387	0.52117	0.04
Mof_C 	C 	0.07643	0.52837	0.8865	-0.037
Mof_C 	C 	0.08433	0.54937	0.91707	-0.015
Mof_H 	H 	0.13603	0.58977	0.92517	0.038
Mof_C 	C 	0.83103	0.65887	0.60278	-0.007
Mof_H 	H 	0.83713	0.65507	0.62357	0.025
Mof_O 	O 	0.6829	0.486	0.02657	-0.504
Mof_O 	O 	0.8595	0.8459	0.1145	-0.492
Mof_O 	O 	0.5746	0.3663	0.9333	-0.321
Mof_C 	C 	0.7478	0.6291	0.0615	0.005
Mof_H 	H 	0.6913	0.6043	0.0564	0.045
Mof_C 	C 	0.7878	0.7032	0.0784	-0.044
Mof_H 	H 	0.7575	0.7293	0.0838	0.061
Mof_C 	C 	0.5528	0.4116	0.9444	0.204
Mof_C 	C 	0.5174	0.4545	0.92447	-0.029
Mof_C 	C 	0.5044	0.4331	0.8939	-0.025
Mof_H 	H 	0.5176	0.3941	0.8861	0.041
Mof_C 	C 	0.4716	0.47	0.87491	-0.02
Mof_H 	H 	0.4629	0.4557	0.8545	0.04
Mof_C 	C 	0.7431	0.8814	0.21983	-0.033
Mof_C 	C 	0.751	0.8683	0.2504	-0.017
Mof_H 	H 	0.8027	0.8796	0.2585	0.039
Mof_C 	C 	0.4977	0.5055	0.93611	-0.007
Mof_H 	H 	0.5038	0.5154	0.9569	0.026
Mof_O 	O 	0.34957	0.81933	0.3599	-0.505
Mof_O 	O 	0.52617	0.17923	0.44783	-0.495
Mof_O 	O 	0.24127	0.69963	0.26663	-0.323
Mof_C 	C 	0.41447	0.96243	0.39483	0.034
Mof_H 	H 	0.35797	0.93763	0.38973	0.036
Mof_C 	C 	0.45447	0.03653	0.41173	-0.075
Mof_H 	H 	0.42417	0.06263	0.41713	0.069
Mof_C 	C 	0.21947	0.74493	0.27773	0.21
Mof_C 	C 	0.18407	0.78783	0.2578	-0.028
Mof_C 	C 	0.17107	0.76643	0.22723	-0.032
Mof_H 	H 	0.18427	0.72743	0.21943	0.043
Mof_C 	C 	0.13827	0.80333	0.20824	-0.018
Mof_H 	H 	0.12957	0.78903	0.18783	0.038
Mof_C 	C 	0.40977	0.21473	0.55316	-0.035
Mof_C 	C 	0.41767	0.20163	0.58373	-0.017
Mof_H 	H 	0.46937	0.21293	0.59183	0.038
Mof_C 	C 	0.16437	0.83883	0.26944	-0.008
Mof_H 	H 	0.17047	0.84873	0.29023	0.021
Mof_O 	O 	0.01623	0.15267	0.69324	-0.509
Mof_O 	O 	0.19283	0.51257	0.78117	-0.496
Mof_O 	O 	0.90793	0.03297	0.59997	-0.325
Mof_C 	C 	0.08113	0.29577	0.72817	0.004
Mof_H 	H 	0.02463	0.27097	0.72307	0.043
Mof_C 	C 	0.12113	0.36987	0.74507	-0.044
Mof_H 	H 	0.09083	0.39597	0.75047	0.059
Mof_C 	C 	0.88613	0.07827	0.61107	0.209
Mof_C 	C 	0.85073	0.12117	0.59114	-0.029
Mof_C 	C 	0.83773	0.09977	0.56057	-0.034
Mof_H 	H 	0.85093	0.06077	0.55277	0.043
Mof_C 	C 	0.80493	0.13667	0.54158	-0.014
Mof_H 	H 	0.79623	0.12237	0.52117	0.037
Mof_C 	C 	0.07643	0.54807	0.8865	-0.038
Mof_C 	C 	0.08433	0.53497	0.91707	-0.015
Mof_H 	H 	0.13603	0.54627	0.92517	0.038
Mof_C 	C 	0.83103	0.17217	0.60278	-0.008
Mof_H 	H 	0.83713	0.18207	0.62357	0.022
Mof_O 	O 	0.514	0.1969	0.02657	-0.504
Mof_O 	O 	0.1541	0.0136	0.1145	-0.5
Mof_O 	O 	0.6337	0.2083	0.9333	-0.321
Mof_C 	C 	0.3709	0.1187	0.0615	0.002
Mof_H 	H 	0.3957	0.087	0.0564	0.044
Mof_C 	C 	0.2968	0.0846	0.0784	-0.042
Mof_H 	H 	0.2707	0.0282	0.0838	0.057
Mof_C 	C 	0.5884	0.1412	0.9444	0.204
Mof_C 	C 	0.5455	0.0629	0.92447	-0.037
Mof_C 	C 	0.5669	0.0713	0.8939	-0.017
Mof_H 	H 	0.6059	0.1235	0.8861	0.038
Mof_C 	C 	0.53	0.0016	0.87491	-0.032
Mof_H 	H 	0.5443	0.0072	0.8545	0.041
Mof_C 	C 	0.1186	0.8617	0.21983	-0.03
Mof_C 	C 	0.1317	0.8827	0.2504	-0.018
Mof_H 	H 	0.1204	0.9231	0.2585	0.041
Mof_C 	C 	0.4945	0.9922	0.93611	0.001
Mof_H 	H 	0.4846	0.9884	0.9569	0.026
Mof_O 	O 	0.18067	0.53023	0.3599	-0.502
Mof_O 	O 	0.82077	0.34693	0.44783	-0.497
Mof_O 	O 	0.30037	0.54163	0.26663	-0.318
Mof_C 	C 	0.03757	0.45203	0.39483	-0.04
Mof_H 	H 	0.06237	0.42033	0.38973	0.058
Mof_C 	C 	0.96347	0.41793	0.41173	0.003
Mof_H 	H 	0.93737	0.36153	0.41713	0.047
Mof_C 	C 	0.25507	0.47453	0.27773	0.199
Mof_C 	C 	0.21217	0.39623	0.2578	-0.03
Mof_C 	C 	0.23357	0.40463	0.22723	-0.017
Mof_H 	H 	0.27257	0.45683	0.21943	0.038
Mof_C 	C 	0.19667	0.33493	0.20824	-0.024
Mof_H 	H 	0.21097	0.34053	0.18783	0.041
Mof_C 	C 	0.78527	0.19503	0.55316	-0.029
Mof_C 	C 	0.79837	0.21603	0.58373	-0.018
Mof_H 	H 	0.78707	0.25643	0.59183	0.04
Mof_C 	C 	0.16117	0.32553	0.26944	-0.008
Mof_H 	H 	0.15127	0.32173	0.29023	0.03
Mof_O 	O 	0.84733	0.86357	0.69324	-0.501
Mof_O 	O 	0.48743	0.68027	0.78117	-0.495
Mof_O 	O 	0.96703	0.87497	0.59997	-0.313
Mof_C 	C 	0.70423	0.78537	0.72817	0.003
Mof_H 	H 	0.72903	0.75367	0.72307	0.045
Mof_C 	C 	0.63013	0.75127	0.74507	-0.042
Mof_H 	H 	0.60403	0.69487	0.75047	0.06
Mof_C 	C 	0.92173	0.80787	0.61107	0.2
Mof_C 	C 	0.87883	0.72957	0.59114	-0.028
Mof_C 	C 	0.90023	0.73797	0.56057	-0.019
Mof_H 	H 	0.93923	0.79017	0.55277	0.042
Mof_C 	C 	0.86333	0.66827	0.54158	-0.023
Mof_H 	H 	0.87763	0.67387	0.52117	0.043
Mof_C 	C 	0.45193	0.52837	0.8865	-0.032
Mof_C 	C 	0.46503	0.54937	0.91707	-0.017
Mof_H 	H 	0.45373	0.58977	0.92517	0.039
Mof_C 	C 	0.82783	0.65887	0.60278	-0.007
Mof_H 	H 	0.81793	0.65507	0.62357	0.028
Mof_O 	O 	0.8031	0.3171	0.02657	-0.503
Mof_O 	O 	0.9864	0.1405	0.1145	-0.489
Mof_O 	O 	0.7917	0.4254	0.9333	-0.319
Mof_C 	C 	0.8813	0.2522	0.0615	0.005
Mof_H 	H 	0.913	0.3087	0.0564	0.046
Mof_C 	C 	0.9154	0.2122	0.0784	-0.043
Mof_H 	H 	0.9718	0.2425	0.0838	0.063
Mof_C 	C 	0.8588	0.4472	0.9444	0.202
Mof_C 	C 	0.9371	0.4826	0.92447	-0.024
Mof_C 	C 	0.9287	0.4956	0.8939	-0.025
Mof_H 	H 	0.8765	0.4824	0.8861	0.042
Mof_C 	C 	0.9984	0.5284	0.87491	-0.016
Mof_H 	H 	0.9928	0.5371	0.8545	0.04
Mof_C 	C 	0.1383	0.2569	0.21983	-0.036
Mof_C 	C 	0.1173	0.249	0.2504	-0.016
Mof_H 	H 	0.0769	0.1973	0.2585	0.035
Mof_C 	C 	0.0078	0.5023	0.93611	-0.013
Mof_H 	H 	0.0116	0.4962	0.9569	0.027
Mof_O 	O 	0.46977	0.65043	0.3599	-0.504
Mof_O 	O 	0.65307	0.47383	0.44783	-0.495
Mof_O 	O 	0.45837	0.75873	0.26663	-0.319
Mof_C 	C 	0.54797	0.58553	0.39483	0.004
Mof_H 	H 	0.57967	0.64203	0.38973	0.045
Mof_C 	C 	0.58207	0.54553	0.41173	-0.043
Mof_H 	H 	0.63847	0.57583	0.41713	0.061
Mof_C 	C 	0.52547	0.78053	0.27773	0.202
Mof_C 	C 	0.60377	0.81593	0.2578	-0.03
Mof_C 	C 	0.59537	0.82893	0.22723	-0.019
Mof_H 	H 	0.54317	0.81573	0.21943	0.04
Mof_C 	C 	0.66507	0.86173	0.20824	-0.023
Mof_H 	H 	0.65947	0.87043	0.18783	0.042
Mof_C 	C 	0.80497	0.59023	0.55316	-0.034
Mof_C 	C 	0.78397	0.58233	0.58373	-0.017
Mof_H 	H 	0.74357	0.53063	0.59183	0.038
Mof_C 	C 	0.67447	0.83563	0.26944	-0.007
Mof_H 	H 	0.67827	0.82953	0.29023	0.028
Mof_O 	O 	0.13643	0.98377	0.69324	-0.496
Mof_O 	O 	0.31973	0.80717	0.78117	-0.494
Mof_O 	O 	0.12503	0.09207	0.59997	-0.32
Mof_C 	C 	0.21463	0.91887	0.72817	0.004
Mof_H 	H 	0.24633	0.97537	0.72307	0.049
Mof_C 	C 	0.24873	0.87887	0.74507	-0.042
Mof_H 	H 	0.30513	0.90917	0.75047	0.062
Mof_C 	C 	0.19213	0.11387	0.61107	0.2
Mof_C 	C 	0.27043	0.14927	0.59114	-0.03
Mof_C 	C 	0.26203	0.16227	0.56057	-0.015
Mof_H 	H 	0.20983	0.14907	0.55277	0.036
Mof_C 	C 	0.33173	0.19507	0.54158	-0.027
Mof_H 	H 	0.32613	0.20377	0.52117	0.041
Mof_C 	C 	0.47163	0.92357	0.8865	-0.026
Mof_C 	C 	0.45063	0.91567	0.91707	-0.02
Mof_H 	H 	0.41023	0.86397	0.92517	0.04
Mof_C 	C 	0.34113	0.16897	0.60278	-0.007
Mof_H 	H 	0.34493	0.16287	0.62357	0.028
Mof_Zn	Zn	0.61025	0.38975	0.00048	1.213
Mof_O 	O 	0.5642	0.4358	0.97175	-0.477
Mof_Zn	Zn	0.27692	0.72308	0.33381	1.213
Mof_O 	O 	0.23087	0.76913	0.30508	-0.478
Mof_Zn	Zn	0.94358	0.05642	0.66715	1.214
Mof_O 	O 	0.89753	0.10247	0.63842	-0.477
Mof_Zn	Zn	0.7795	0.38975	0.00048	1.213
Mof_O 	O 	0.8716	0.4358	0.97175	-0.475
Mof_Zn	Zn	0.44617	0.72308	0.33381	1.213
Mof_O 	O 	0.53827	0.76913	0.30508	-0.477
Mof_Zn	Zn	0.11283	0.05642	0.66715	1.211
Mof_O 	O 	0.20493	0.10247	0.63842	-0.48
Mof_Zn	Zn	0.61025	0.2205	0.00048	1.213
Mof_O 	O 	0.5642	0.1284	0.97175	-0.48
Mof_Zn	Zn	0.27692	0.55383	0.33381	1.213
Mof_O 	O 	0.23087	0.46173	0.30508	-0.478
Mof_Zn	Zn	0.94358	0.88717	0.66715	1.217
Mof_O 	O 	0.89753	0.79507	0.63842	-0.474
Mof_Zn	Zn	0.66667	0.33333	0.93914	1.217
Mof_O 	O 	0.66667	0.33333	0.9851	-0.94
Mof_Zn	Zn	0.33333	0.66667	0.27247	1.217
Mof_O 	O 	0.33333	0.66667	0.31843	-0.94
Mof_Zn	Zn	3.12638e-32	0	0.60581	1.212
Mof_O 	O 	1.56319e-32	0	0.65177	-0.951
Mof_Zn	Zn	0.05786	0.11572	0.13736	1.213
Mof_O 	O 	0.05585	0.1117	0.21337	-0.515
Mof_O 	O 	0.09615	0.1923	0.17192	-0.515
Mof_C 	C 	0.08985	0.1797	0.1999	0.392
Mof_Zn	Zn	0.72453	0.44905	0.47069	1.216
Mof_O 	O 	0.72252	0.44503	0.5467	-0.51
Mof_O 	O 	0.76282	0.52563	0.50525	-0.511
Mof_C 	C 	0.75652	0.51303	0.53323	0.392
Mof_Zn	Zn	0.39119	0.78239	0.80403	1.216
Mof_O 	O 	0.38918	0.77837	0.88004	-0.509
Mof_O 	O 	0.42948	0.85897	0.83859	-0.508
Mof_C 	C 	0.42318	0.84637	0.86657	0.388
Mof_Zn	Zn	0.05786	0.94214	0.13736	1.216
Mof_O 	O 	0.05585	0.94415	0.21337	-0.51
Mof_O 	O 	0.09615	0.90385	0.17192	-0.512
Mof_C 	C 	0.08985	0.91015	0.1999	0.391
Mof_Zn	Zn	0.72453	0.27547	0.47069	1.216
Mof_O 	O 	0.72252	0.27748	0.5467	-0.51
Mof_O 	O 	0.76282	0.23718	0.50525	-0.512
Mof_C 	C 	0.75652	0.24348	0.53323	0.392
Mof_Zn	Zn	0.39119	0.60881	0.80403	1.216
Mof_O 	O 	0.38918	0.61082	0.88004	-0.51
Mof_O 	O 	0.42948	0.57052	0.83859	-0.512
Mof_C 	C 	0.42318	0.57682	0.86657	0.392
Mof_Zn	Zn	0.88428	0.94214	0.13736	1.219
Mof_O 	O 	0.8883	0.94415	0.21337	-0.502
Mof_O 	O 	0.8077	0.90385	0.17192	-0.509
Mof_C 	C 	0.8203	0.91015	0.1999	0.391
Mof_Zn	Zn	0.55095	0.27547	0.47069	1.215
Mof_O 	O 	0.55497	0.27748	0.5467	-0.51
Mof_O 	O 	0.47437	0.23718	0.50525	-0.513
Mof_C 	C 	0.48697	0.24348	0.53323	0.391
Mof_Zn	Zn	0.21761	0.60881	0.80403	1.215
Mof_O 	O 	0.22163	0.61082	0.88004	-0.511
Mof_O 	O 	0.14103	0.57052	0.83859	-0.514
Mof_C 	C 	0.15363	0.57682	0.86657	0.394
Mof_Zn	Zn	-0	-7.81595e-33	0.19544	1.208
Mof_O 	O 	3.90798e-33	0	0.152	-0.97
Mof_Zn	Zn	0.66667	0.33333	0.52877	1.212
Mof_O 	O 	0.66667	0.33333	0.48533	-0.96
Mof_Zn	Zn	0.33333	0.66667	0.86211	1.212
Mof_O 	O 	0.33333	0.66667	0.81867	-0.96
Mof_C 	C 	0.4829	0.24145	0.0336	0.407
Mof_C 	C 	0.4067	0.20335	0.0524	-0.107
Mof_C 	C 	0.1815	0.09075	0.1062	0.32
Mof_C 	C 	0.2613	0.13065	0.0872	-0.049
Mof_C 	C 	0.14957	0.57478	0.36693	0.396
Mof_C 	C 	0.07337	0.53668	0.38573	-0.082
Mof_C 	C 	0.84817	0.42408	0.43953	0.33
Mof_C 	C 	0.92797	0.46398	0.42053	-0.077
Mof_C 	C 	0.81623	0.90812	0.70027	0.406
Mof_C 	C 	0.74003	0.87002	0.71907	-0.105
Mof_C 	C 	0.51483	0.75742	0.77287	0.32
Mof_C 	C 	0.59463	0.79732	0.75387	-0.047
Mof_C 	C 	0.75855	0.5171	0.0336	0.408
Mof_C 	C 	0.79665	0.5933	0.0524	-0.108
Mof_C 	C 	0.90925	0.8185	0.1062	0.319
Mof_C 	C 	0.86935	0.7387	0.0872	-0.044
Mof_C 	C 	0.42522	0.85043	0.36693	0.415
Mof_C 	C 	0.46332	0.92663	0.38573	-0.125
Mof_C 	C 	0.57592	0.15183	0.43953	0.312
Mof_C 	C 	0.53602	0.07203	0.42053	-0.027
Mof_C 	C 	0.09188	0.18377	0.70027	0.408
Mof_C 	C 	0.12998	0.25997	0.71907	-0.109
Mof_C 	C 	0.24258	0.48517	0.77287	0.319
Mof_C 	C 	0.20268	0.40537	0.75387	-0.047
Mof_C 	C 	0.75855	0.24145	0.0336	0.407
Mof_C 	C 	0.79665	0.20335	0.0524	-0.108
Mof_C 	C 	0.90925	0.09075	0.1062	0.319
Mof_C 	C 	0.86935	0.13065	0.0872	-0.046
Mof_C 	C 	0.42522	0.57478	0.36693	0.407
Mof_C 	C 	0.46332	0.53668	0.38573	-0.107
Mof_C 	C 	0.57592	0.42408	0.43953	0.319
Mof_C 	C 	0.53602	0.46398	0.42053	-0.047
Mof_C 	C 	0.09188	0.90812	0.70027	0.407
Mof_C 	C 	0.12998	0.87002	0.71907	-0.106
Mof_C 	C 	0.24258	0.75742	0.77287	0.32
Mof_C 	C 	0.20268	0.79732	0.75387	-0.047
_end
