data_functionalizedCrystal
_audit_creation_method	'EQeq! by Chris Wilmer'
_symmetry_space_group_name_H-M	'P1'
_symmetry_Int_Tables_number	1
_symmetry_cell_setting	triclinic
loop_
_symmetry_equiv_pos_as_xyz
  x,y,z
_cell_length_a	35.7948
_cell_length_b	35.7948
_cell_length_c	35.7948
_cell_angle_alpha	90
_cell_angle_beta	90
_cell_angle_gamma	90
loop_
_atom_site_label
_atom_site_type_symbol
_atom_site_fract_x
_atom_site_fract_y
_atom_site_fract_z
_atom_site_charge
Mof_O 	O 	0.7521	0.67087	0.24855	-0.686
Mof_O 	O 	0.7878	0.69532	0.29317	-0.701
Mof_C 	C 	0.76978	0.66936	0.27883	0.63
Mof_C 	C 	0.76878	0.63354	0.29909	-0.264
Mof_C 	C 	0.7542	0.60163	0.28343	0.143
Mof_H 	H 	0.7446	0.6023	0.2587	-0.014
Mof_C 	C 	0.7834	0.63185	0.33524	0.143
Mof_H 	H 	0.7943	0.6534	0.3462	-0.016
Mof_C 	C 	0.7532	0.56873	0.30326	-0.175
Mof_H 	H 	0.7433	0.5468	0.292	0.09
Mof_C 	C 	0.7665	0.56726	0.33936	0.089
Mof_C 	C 	0.7648	0.53226	0.36124	0.055
Mof_C 	C 	0.782	0.59946	0.3547	-0.18
Mof_H 	H 	0.7919	0.5987	0.3793	0.084
Mof_C 	C 	0.7626	0.5331	0.39952	-0.116
Mof_H 	H 	0.7617	0.5564	0.4122	0.062
Mof_C 	C 	0.774	0.5284	0.4813	-0.035
Mof_H 	H 	0.7841	0.5494	0.4685	0.033
Mof_C 	C 	0.739	0.5258	0.4793	-0.039
Mof_H 	H 	0.7244	0.5432	0.4656	0.038
Mof_O 	O 	0.2479	0.32913	0.24855	-0.686
Mof_O 	O 	0.2122	0.30468	0.29317	-0.701
Mof_C 	C 	0.23022	0.33064	0.27883	0.63
Mof_C 	C 	0.23122	0.36646	0.29909	-0.264
Mof_C 	C 	0.2458	0.39837	0.28343	0.143
Mof_H 	H 	0.2554	0.3977	0.2587	-0.014
Mof_C 	C 	0.2166	0.36815	0.33524	0.143
Mof_H 	H 	0.2057	0.3466	0.3462	-0.016
Mof_C 	C 	0.2468	0.43127	0.30326	-0.175
Mof_H 	H 	0.2567	0.4532	0.292	0.09
Mof_C 	C 	0.2335	0.43274	0.33936	0.089
Mof_C 	C 	0.2352	0.46774	0.36124	0.055
Mof_C 	C 	0.218	0.40054	0.3547	-0.18
Mof_H 	H 	0.2081	0.4013	0.3793	0.084
Mof_C 	C 	0.2374	0.4669	0.39952	-0.116
Mof_H 	H 	0.2383	0.4436	0.4122	0.062
Mof_C 	C 	0.226	0.4716	0.4813	-0.035
Mof_H 	H 	0.2159	0.4506	0.4685	0.033
Mof_C 	C 	0.261	0.4742	0.4793	-0.039
Mof_H 	H 	0.2756	0.4568	0.4656	0.038
Mof_O 	O 	0.2479	0.67087	0.75145	-0.686
Mof_O 	O 	0.2122	0.69532	0.70683	-0.701
Mof_C 	C 	0.23022	0.66936	0.72117	0.63
Mof_C 	C 	0.23122	0.63354	0.70091	-0.264
Mof_C 	C 	0.2458	0.60163	0.71657	0.143
Mof_H 	H 	0.2554	0.6023	0.7413	-0.014
Mof_C 	C 	0.2166	0.63185	0.66476	0.143
Mof_H 	H 	0.2057	0.6534	0.6538	-0.016
Mof_C 	C 	0.2468	0.56873	0.69674	-0.175
Mof_H 	H 	0.2567	0.5468	0.708	0.09
Mof_C 	C 	0.2335	0.56726	0.66064	0.089
Mof_C 	C 	0.2352	0.53226	0.63876	0.055
Mof_C 	C 	0.218	0.59946	0.6453	-0.18
Mof_H 	H 	0.2081	0.5987	0.6207	0.084
Mof_C 	C 	0.2374	0.5331	0.60048	-0.116
Mof_H 	H 	0.2383	0.5564	0.5878	0.062
Mof_C 	C 	0.226	0.5284	0.5187	-0.035
Mof_H 	H 	0.2159	0.5494	0.5315	0.033
Mof_C 	C 	0.261	0.5258	0.5207	-0.039
Mof_H 	H 	0.2756	0.5432	0.5344	0.038
Mof_O 	O 	0.7521	0.32913	0.75145	-0.686
Mof_O 	O 	0.7878	0.30468	0.70683	-0.701
Mof_C 	C 	0.76978	0.33064	0.72117	0.63
Mof_C 	C 	0.76878	0.36646	0.70091	-0.264
Mof_C 	C 	0.7542	0.39837	0.71657	0.143
Mof_H 	H 	0.7446	0.3977	0.7413	-0.014
Mof_C 	C 	0.7834	0.36815	0.66476	0.144
Mof_H 	H 	0.7943	0.3466	0.6538	-0.015
Mof_C 	C 	0.7532	0.43127	0.69674	-0.174
Mof_H 	H 	0.7433	0.4532	0.708	0.091
Mof_C 	C 	0.7665	0.43274	0.66064	0.09
Mof_C 	C 	0.7648	0.46774	0.63876	0.056
Mof_C 	C 	0.782	0.40054	0.6453	-0.179
Mof_H 	H 	0.7919	0.4013	0.6207	0.085
Mof_C 	C 	0.7626	0.4669	0.60048	-0.115
Mof_H 	H 	0.7617	0.4436	0.5878	0.063
Mof_C 	C 	0.774	0.4716	0.5187	-0.034
Mof_H 	H 	0.7841	0.4506	0.5315	0.034
Mof_C 	C 	0.739	0.4742	0.5207	-0.038
Mof_H 	H 	0.7244	0.4568	0.5344	0.039
Mof_O 	O 	0.24855	0.7521	0.67087	-0.685
Mof_O 	O 	0.29317	0.7878	0.69532	-0.7
Mof_C 	C 	0.27883	0.76978	0.66936	0.631
Mof_C 	C 	0.29909	0.76878	0.63354	-0.263
Mof_C 	C 	0.28343	0.7542	0.60163	0.144
Mof_H 	H 	0.2587	0.7446	0.6023	-0.013
Mof_C 	C 	0.33524	0.7834	0.63185	0.144
Mof_H 	H 	0.3462	0.7943	0.6534	-0.015
Mof_C 	C 	0.30326	0.7532	0.56873	-0.174
Mof_H 	H 	0.292	0.7433	0.5468	0.091
Mof_C 	C 	0.33936	0.7665	0.56726	0.09
Mof_C 	C 	0.36124	0.7648	0.53226	0.056
Mof_C 	C 	0.3547	0.782	0.59946	-0.179
Mof_H 	H 	0.3793	0.7919	0.5987	0.085
Mof_C 	C 	0.39952	0.7626	0.5331	-0.115
Mof_H 	H 	0.4122	0.7617	0.5564	0.063
Mof_C 	C 	0.4813	0.774	0.5284	-0.034
Mof_H 	H 	0.4685	0.7841	0.5494	0.034
Mof_C 	C 	0.4793	0.739	0.5258	-0.038
Mof_H 	H 	0.4656	0.7244	0.5432	0.039
Mof_O 	O 	0.24855	0.2479	0.32913	-0.685
Mof_O 	O 	0.29317	0.2122	0.30468	-0.7
Mof_C 	C 	0.27883	0.23022	0.33064	0.631
Mof_C 	C 	0.29909	0.23122	0.36646	-0.263
Mof_C 	C 	0.28343	0.2458	0.39837	0.144
Mof_H 	H 	0.2587	0.2554	0.3977	-0.013
Mof_C 	C 	0.33524	0.2166	0.36815	0.144
Mof_H 	H 	0.3462	0.2057	0.3466	-0.015
Mof_C 	C 	0.30326	0.2468	0.43127	-0.174
Mof_H 	H 	0.292	0.2567	0.4532	0.091
Mof_C 	C 	0.33936	0.2335	0.43274	0.09
Mof_C 	C 	0.36124	0.2352	0.46774	0.056
Mof_C 	C 	0.3547	0.218	0.40054	-0.179
Mof_H 	H 	0.3793	0.2081	0.4013	0.085
Mof_C 	C 	0.39952	0.2374	0.4669	-0.115
Mof_H 	H 	0.4122	0.2383	0.4436	0.063
Mof_C 	C 	0.4813	0.226	0.4716	-0.034
Mof_H 	H 	0.4685	0.2159	0.4506	0.034
Mof_C 	C 	0.4793	0.261	0.4742	-0.038
Mof_H 	H 	0.4656	0.2756	0.4568	0.039
Mof_O 	O 	0.75145	0.2479	0.67087	-0.685
Mof_O 	O 	0.70683	0.2122	0.69532	-0.7
Mof_C 	C 	0.72117	0.23022	0.66936	0.631
Mof_C 	C 	0.70091	0.23122	0.63354	-0.263
Mof_C 	C 	0.71657	0.2458	0.60163	0.144
Mof_H 	H 	0.7413	0.2554	0.6023	-0.013
Mof_C 	C 	0.66476	0.2166	0.63185	0.144
Mof_H 	H 	0.6538	0.2057	0.6534	-0.015
Mof_C 	C 	0.69674	0.2468	0.56873	-0.174
Mof_H 	H 	0.708	0.2567	0.5468	0.091
Mof_C 	C 	0.66064	0.2335	0.56726	0.09
Mof_C 	C 	0.63876	0.2352	0.53226	0.056
Mof_C 	C 	0.6453	0.218	0.59946	-0.179
Mof_H 	H 	0.6207	0.2081	0.5987	0.085
Mof_C 	C 	0.60048	0.2374	0.5331	-0.115
Mof_H 	H 	0.5878	0.2383	0.5564	0.063
Mof_C 	C 	0.5187	0.226	0.5284	-0.034
Mof_H 	H 	0.5315	0.2159	0.5494	0.034
Mof_C 	C 	0.5207	0.261	0.5258	-0.038
Mof_H 	H 	0.5344	0.2756	0.5432	0.039
Mof_O 	O 	0.75145	0.7521	0.32913	-0.685
Mof_O 	O 	0.70683	0.7878	0.30468	-0.7
Mof_C 	C 	0.72117	0.76978	0.33064	0.631
Mof_C 	C 	0.70091	0.76878	0.36646	-0.263
Mof_C 	C 	0.71657	0.7542	0.39837	0.144
Mof_H 	H 	0.7413	0.7446	0.3977	-0.013
Mof_C 	C 	0.66476	0.7834	0.36815	0.144
Mof_H 	H 	0.6538	0.7943	0.3466	-0.015
Mof_C 	C 	0.69674	0.7532	0.43127	-0.174
Mof_H 	H 	0.708	0.7433	0.4532	0.091
Mof_C 	C 	0.66064	0.7665	0.43274	0.09
Mof_C 	C 	0.63876	0.7648	0.46774	0.056
Mof_C 	C 	0.6453	0.782	0.40054	-0.179
Mof_H 	H 	0.6207	0.7919	0.4013	0.085
Mof_C 	C 	0.60048	0.7626	0.4669	-0.115
Mof_H 	H 	0.5878	0.7617	0.4436	0.063
Mof_C 	C 	0.5187	0.774	0.4716	-0.034
Mof_H 	H 	0.5315	0.7841	0.4506	0.034
Mof_C 	C 	0.5207	0.739	0.4742	-0.038
Mof_H 	H 	0.5344	0.7244	0.4568	0.039
Mof_O 	O 	0.67087	0.24855	0.7521	-0.685
Mof_O 	O 	0.69532	0.29317	0.7878	-0.7
Mof_C 	C 	0.66936	0.27883	0.76978	0.631
Mof_C 	C 	0.63354	0.29909	0.76878	-0.263
Mof_C 	C 	0.60163	0.28343	0.7542	0.144
Mof_H 	H 	0.6023	0.2587	0.7446	-0.013
Mof_C 	C 	0.63185	0.33524	0.7834	0.144
Mof_H 	H 	0.6534	0.3462	0.7943	-0.015
Mof_C 	C 	0.56873	0.30326	0.7532	-0.174
Mof_H 	H 	0.5468	0.292	0.7433	0.091
Mof_C 	C 	0.56726	0.33936	0.7665	0.09
Mof_C 	C 	0.53226	0.36124	0.7648	0.056
Mof_C 	C 	0.59946	0.3547	0.782	-0.179
Mof_H 	H 	0.5987	0.3793	0.7919	0.085
Mof_C 	C 	0.5331	0.39952	0.7626	-0.115
Mof_H 	H 	0.5564	0.4122	0.7617	0.063
Mof_C 	C 	0.5284	0.4813	0.774	-0.034
Mof_H 	H 	0.5494	0.4685	0.7841	0.034
Mof_C 	C 	0.5258	0.4793	0.739	-0.038
Mof_H 	H 	0.5432	0.4656	0.7244	0.039
Mof_O 	O 	0.32913	0.24855	0.2479	-0.685
Mof_O 	O 	0.30468	0.29317	0.2122	-0.7
Mof_C 	C 	0.33064	0.27883	0.23022	0.631
Mof_C 	C 	0.36646	0.29909	0.23122	-0.263
Mof_C 	C 	0.39837	0.28343	0.2458	0.144
Mof_H 	H 	0.3977	0.2587	0.2554	-0.013
Mof_C 	C 	0.36815	0.33524	0.2166	0.144
Mof_H 	H 	0.3466	0.3462	0.2057	-0.015
Mof_C 	C 	0.43127	0.30326	0.2468	-0.174
Mof_H 	H 	0.4532	0.292	0.2567	0.091
Mof_C 	C 	0.43274	0.33936	0.2335	0.09
Mof_C 	C 	0.46774	0.36124	0.2352	0.056
Mof_C 	C 	0.40054	0.3547	0.218	-0.179
Mof_H 	H 	0.4013	0.3793	0.2081	0.085
Mof_C 	C 	0.4669	0.39952	0.2374	-0.115
Mof_H 	H 	0.4436	0.4122	0.2383	0.063
Mof_C 	C 	0.4716	0.4813	0.226	-0.034
Mof_H 	H 	0.4506	0.4685	0.2159	0.034
Mof_C 	C 	0.4742	0.4793	0.261	-0.038
Mof_H 	H 	0.4568	0.4656	0.2756	0.039
Mof_O 	O 	0.67087	0.75145	0.2479	-0.685
Mof_O 	O 	0.69532	0.70683	0.2122	-0.7
Mof_C 	C 	0.66936	0.72117	0.23022	0.631
Mof_C 	C 	0.63354	0.70091	0.23122	-0.263
Mof_C 	C 	0.60163	0.71657	0.2458	0.144
Mof_H 	H 	0.6023	0.7413	0.2554	-0.013
Mof_C 	C 	0.63185	0.66476	0.2166	0.144
Mof_H 	H 	0.6534	0.6538	0.2057	-0.015
Mof_C 	C 	0.56873	0.69674	0.2468	-0.174
Mof_H 	H 	0.5468	0.708	0.2567	0.091
Mof_C 	C 	0.56726	0.66064	0.2335	0.09
Mof_C 	C 	0.53226	0.63876	0.2352	0.056
Mof_C 	C 	0.59946	0.6453	0.218	-0.179
Mof_H 	H 	0.5987	0.6207	0.2081	0.085
Mof_C 	C 	0.5331	0.60048	0.2374	-0.115
Mof_H 	H 	0.5564	0.5878	0.2383	0.063
Mof_C 	C 	0.5284	0.5187	0.226	-0.034
Mof_H 	H 	0.5494	0.5315	0.2159	0.034
Mof_C 	C 	0.5258	0.5207	0.261	-0.038
Mof_H 	H 	0.5432	0.5344	0.2756	0.039
Mof_O 	O 	0.32913	0.75145	0.7521	-0.685
Mof_O 	O 	0.30468	0.70683	0.7878	-0.7
Mof_C 	C 	0.33064	0.72117	0.76978	0.631
Mof_C 	C 	0.36646	0.70091	0.76878	-0.263
Mof_C 	C 	0.39837	0.71657	0.7542	0.144
Mof_H 	H 	0.3977	0.7413	0.7446	-0.013
Mof_C 	C 	0.36815	0.66476	0.7834	0.144
Mof_H 	H 	0.3466	0.6538	0.7943	-0.015
Mof_C 	C 	0.43127	0.69674	0.7532	-0.174
Mof_H 	H 	0.4532	0.708	0.7433	0.091
Mof_C 	C 	0.43274	0.66064	0.7665	0.09
Mof_C 	C 	0.46774	0.63876	0.7648	0.056
Mof_C 	C 	0.40054	0.6453	0.782	-0.179
Mof_H 	H 	0.4013	0.6207	0.7919	0.085
Mof_C 	C 	0.4669	0.60048	0.7626	-0.115
Mof_H 	H 	0.4436	0.5878	0.7617	0.063
Mof_C 	C 	0.4716	0.5187	0.774	-0.034
Mof_H 	H 	0.4506	0.5315	0.7841	0.034
Mof_C 	C 	0.4742	0.5207	0.739	-0.038
Mof_H 	H 	0.4568	0.5344	0.7244	0.039
Mof_O 	O 	0.17087	0.2521	0.25145	-0.685
Mof_O 	O 	0.19532	0.2878	0.20683	-0.7
Mof_C 	C 	0.16936	0.26978	0.22117	0.631
Mof_C 	C 	0.13354	0.26878	0.20091	-0.263
Mof_C 	C 	0.10163	0.2542	0.21657	0.144
Mof_H 	H 	0.1023	0.2446	0.2413	-0.013
Mof_C 	C 	0.13185	0.2834	0.16476	0.144
Mof_H 	H 	0.1534	0.2943	0.1538	-0.015
Mof_C 	C 	0.06873	0.2532	0.19674	-0.174
Mof_H 	H 	0.0468	0.2433	0.208	0.091
Mof_C 	C 	0.06726	0.2665	0.16064	0.09
Mof_C 	C 	0.03226	0.2648	0.13876	0.056
Mof_C 	C 	0.09946	0.282	0.1453	-0.179
Mof_H 	H 	0.0987	0.2919	0.1207	0.085
Mof_C 	C 	0.0331	0.2626	0.10048	-0.116
Mof_H 	H 	0.0564	0.2617	0.0878	0.063
Mof_C 	C 	0.0284	0.274	0.0187	-0.032
Mof_H 	H 	0.0494	0.2841	0.0315	0.034
Mof_C 	C 	0.0258	0.239	0.0207	-0.037
Mof_H 	H 	0.0432	0.2244	0.0344	0.039
Mof_O 	O 	0.82913	0.7479	0.25145	-0.685
Mof_O 	O 	0.80468	0.7122	0.20683	-0.7
Mof_C 	C 	0.83064	0.73022	0.22117	0.631
Mof_C 	C 	0.86646	0.73122	0.20091	-0.263
Mof_C 	C 	0.89837	0.7458	0.21657	0.143
Mof_H 	H 	0.8977	0.7554	0.2413	-0.013
Mof_C 	C 	0.86815	0.7166	0.16476	0.144
Mof_H 	H 	0.8466	0.7057	0.1538	-0.015
Mof_C 	C 	0.93127	0.7468	0.19674	-0.174
Mof_H 	H 	0.9532	0.7567	0.208	0.091
Mof_C 	C 	0.93274	0.7335	0.16064	0.09
Mof_C 	C 	0.96774	0.7352	0.13876	0.056
Mof_C 	C 	0.90054	0.718	0.1453	-0.179
Mof_H 	H 	0.9013	0.7081	0.1207	0.085
Mof_C 	C 	0.9669	0.7374	0.10048	-0.116
Mof_H 	H 	0.9436	0.7383	0.0878	0.063
Mof_C 	C 	0.9716	0.726	0.0187	-0.032
Mof_H 	H 	0.9506	0.7159	0.0315	0.034
Mof_C 	C 	0.9742	0.761	0.0207	-0.038
Mof_H 	H 	0.9568	0.7756	0.0344	0.039
Mof_O 	O 	0.17087	0.7479	0.74855	-0.685
Mof_O 	O 	0.19532	0.7122	0.79317	-0.7
Mof_C 	C 	0.16936	0.73022	0.77883	0.631
Mof_C 	C 	0.13354	0.73122	0.79909	-0.263
Mof_C 	C 	0.10163	0.7458	0.78343	0.144
Mof_H 	H 	0.1023	0.7554	0.7587	-0.013
Mof_C 	C 	0.13185	0.7166	0.83524	0.144
Mof_H 	H 	0.1534	0.7057	0.8462	-0.015
Mof_C 	C 	0.06873	0.7468	0.80326	-0.174
Mof_H 	H 	0.0468	0.7567	0.792	0.091
Mof_C 	C 	0.06726	0.7335	0.83936	0.09
Mof_C 	C 	0.03226	0.7352	0.86124	0.056
Mof_C 	C 	0.09946	0.718	0.8547	-0.179
Mof_H 	H 	0.0987	0.7081	0.8793	0.085
Mof_C 	C 	0.0331	0.7374	0.89952	-0.115
Mof_H 	H 	0.0564	0.7383	0.9122	0.063
Mof_C 	C 	0.0284	0.726	0.9813	-0.037
Mof_H 	H 	0.0494	0.7159	0.9685	0.035
Mof_C 	C 	0.0258	0.761	0.9793	-0.038
Mof_H 	H 	0.0432	0.7756	0.9656	0.039
Mof_O 	O 	0.82913	0.2521	0.74855	-0.685
Mof_O 	O 	0.80468	0.2878	0.79317	-0.7
Mof_C 	C 	0.83064	0.26978	0.77883	0.631
Mof_C 	C 	0.86646	0.26878	0.79909	-0.263
Mof_C 	C 	0.89837	0.2542	0.78343	0.144
Mof_H 	H 	0.8977	0.2446	0.7587	-0.013
Mof_C 	C 	0.86815	0.2834	0.83524	0.144
Mof_H 	H 	0.8466	0.2943	0.8462	-0.015
Mof_C 	C 	0.93127	0.2532	0.80326	-0.174
Mof_H 	H 	0.9532	0.2433	0.792	0.091
Mof_C 	C 	0.93274	0.2665	0.83936	0.09
Mof_C 	C 	0.96774	0.2648	0.86124	0.055
Mof_C 	C 	0.90054	0.282	0.8547	-0.179
Mof_H 	H 	0.9013	0.2919	0.8793	0.085
Mof_C 	C 	0.9669	0.2626	0.89952	-0.115
Mof_H 	H 	0.9436	0.2617	0.9122	0.063
Mof_C 	C 	0.9716	0.274	0.9813	-0.037
Mof_H 	H 	0.9506	0.2841	0.9685	0.035
Mof_C 	C 	0.9742	0.239	0.9793	-0.038
Mof_H 	H 	0.9568	0.2244	0.9656	0.039
Mof_O 	O 	0.2521	0.74855	0.82913	-0.685
Mof_O 	O 	0.2878	0.79317	0.80468	-0.7
Mof_C 	C 	0.26978	0.77883	0.83064	0.631
Mof_C 	C 	0.26878	0.79909	0.86646	-0.263
Mof_C 	C 	0.2542	0.78343	0.89837	0.144
Mof_H 	H 	0.2446	0.7587	0.8977	-0.013
Mof_C 	C 	0.2834	0.83524	0.86815	0.144
Mof_H 	H 	0.2943	0.8462	0.8466	-0.015
Mof_C 	C 	0.2532	0.80326	0.93127	-0.174
Mof_H 	H 	0.2433	0.792	0.9532	0.091
Mof_C 	C 	0.2665	0.83936	0.93274	0.09
Mof_C 	C 	0.2648	0.86124	0.96774	0.055
Mof_C 	C 	0.282	0.8547	0.90054	-0.179
Mof_H 	H 	0.2919	0.8793	0.9013	0.085
Mof_C 	C 	0.2626	0.89952	0.9669	-0.115
Mof_H 	H 	0.2617	0.9122	0.9436	0.063
Mof_C 	C 	0.274	0.9813	0.9716	-0.037
Mof_H 	H 	0.2841	0.9685	0.9506	0.035
Mof_C 	C 	0.239	0.9793	0.9742	-0.038
Mof_H 	H 	0.2244	0.9656	0.9568	0.039
Mof_O 	O 	0.7479	0.74855	0.17087	-0.685
Mof_O 	O 	0.7122	0.79317	0.19532	-0.7
Mof_C 	C 	0.73022	0.77883	0.16936	0.631
Mof_C 	C 	0.73122	0.79909	0.13354	-0.263
Mof_C 	C 	0.7458	0.78343	0.10163	0.144
Mof_H 	H 	0.7554	0.7587	0.1023	-0.013
Mof_C 	C 	0.7166	0.83524	0.13185	0.144
Mof_H 	H 	0.7057	0.8462	0.1534	-0.015
Mof_C 	C 	0.7468	0.80326	0.06873	-0.174
Mof_H 	H 	0.7567	0.792	0.0468	0.091
Mof_C 	C 	0.7335	0.83936	0.06726	0.09
Mof_C 	C 	0.7352	0.86124	0.03226	0.056
Mof_C 	C 	0.718	0.8547	0.09946	-0.179
Mof_H 	H 	0.7081	0.8793	0.0987	0.085
Mof_C 	C 	0.7374	0.89952	0.0331	-0.115
Mof_H 	H 	0.7383	0.9122	0.0564	0.063
Mof_C 	C 	0.726	0.9813	0.0284	-0.037
Mof_H 	H 	0.7159	0.9685	0.0494	0.035
Mof_C 	C 	0.761	0.9793	0.0258	-0.038
Mof_H 	H 	0.7756	0.9656	0.0432	0.039
Mof_O 	O 	0.7479	0.25145	0.82913	-0.685
Mof_O 	O 	0.7122	0.20683	0.80468	-0.7
Mof_C 	C 	0.73022	0.22117	0.83064	0.631
Mof_C 	C 	0.73122	0.20091	0.86646	-0.263
Mof_C 	C 	0.7458	0.21657	0.89837	0.143
Mof_H 	H 	0.7554	0.2413	0.8977	-0.013
Mof_C 	C 	0.7166	0.16476	0.86815	0.144
Mof_H 	H 	0.7057	0.1538	0.8466	-0.015
Mof_C 	C 	0.7468	0.19674	0.93127	-0.174
Mof_H 	H 	0.7567	0.208	0.9532	0.091
Mof_C 	C 	0.7335	0.16064	0.93274	0.09
Mof_C 	C 	0.7352	0.13876	0.96774	0.056
Mof_C 	C 	0.718	0.1453	0.90054	-0.179
Mof_H 	H 	0.7081	0.1207	0.9013	0.085
Mof_C 	C 	0.7374	0.10048	0.9669	-0.116
Mof_H 	H 	0.7383	0.0878	0.9436	0.063
Mof_C 	C 	0.726	0.0187	0.9716	-0.032
Mof_H 	H 	0.7159	0.0315	0.9506	0.034
Mof_C 	C 	0.761	0.0207	0.9742	-0.038
Mof_H 	H 	0.7756	0.0344	0.9568	0.039
Mof_O 	O 	0.2521	0.25145	0.17087	-0.685
Mof_O 	O 	0.2878	0.20683	0.19532	-0.7
Mof_C 	C 	0.26978	0.22117	0.16936	0.631
Mof_C 	C 	0.26878	0.20091	0.13354	-0.263
Mof_C 	C 	0.2542	0.21657	0.10163	0.144
Mof_H 	H 	0.2446	0.2413	0.1023	-0.013
Mof_C 	C 	0.2834	0.16476	0.13185	0.144
Mof_H 	H 	0.2943	0.1538	0.1534	-0.015
Mof_C 	C 	0.2532	0.19674	0.06873	-0.174
Mof_H 	H 	0.2433	0.208	0.0468	0.091
Mof_C 	C 	0.2665	0.16064	0.06726	0.09
Mof_C 	C 	0.2648	0.13876	0.03226	0.056
Mof_C 	C 	0.282	0.1453	0.09946	-0.179
Mof_H 	H 	0.2919	0.1207	0.0987	0.085
Mof_C 	C 	0.2626	0.10048	0.0331	-0.116
Mof_H 	H 	0.2617	0.0878	0.0564	0.063
Mof_C 	C 	0.274	0.0187	0.0284	-0.032
Mof_H 	H 	0.2841	0.0315	0.0494	0.034
Mof_C 	C 	0.239	0.0207	0.0258	-0.037
Mof_H 	H 	0.2244	0.0344	0.0432	0.039
Mof_O 	O 	0.74855	0.17087	0.7479	-0.685
Mof_O 	O 	0.79317	0.19532	0.7122	-0.7
Mof_C 	C 	0.77883	0.16936	0.73022	0.631
Mof_C 	C 	0.79909	0.13354	0.73122	-0.263
Mof_C 	C 	0.78343	0.10163	0.7458	0.144
Mof_H 	H 	0.7587	0.1023	0.7554	-0.013
Mof_C 	C 	0.83524	0.13185	0.7166	0.144
Mof_H 	H 	0.8462	0.1534	0.7057	-0.015
Mof_C 	C 	0.80326	0.06873	0.7468	-0.174
Mof_H 	H 	0.792	0.0468	0.7567	0.091
Mof_C 	C 	0.83936	0.06726	0.7335	0.09
Mof_C 	C 	0.86124	0.03226	0.7352	0.056
Mof_C 	C 	0.8547	0.09946	0.718	-0.179
Mof_H 	H 	0.8793	0.0987	0.7081	0.085
Mof_C 	C 	0.89952	0.0331	0.7374	-0.115
Mof_H 	H 	0.9122	0.0564	0.7383	0.063
Mof_C 	C 	0.9813	0.0284	0.726	-0.037
Mof_H 	H 	0.9685	0.0494	0.7159	0.035
Mof_C 	C 	0.9793	0.0258	0.761	-0.038
Mof_H 	H 	0.9656	0.0432	0.7756	0.039
Mof_O 	O 	0.74855	0.82913	0.2521	-0.685
Mof_O 	O 	0.79317	0.80468	0.2878	-0.7
Mof_C 	C 	0.77883	0.83064	0.26978	0.631
Mof_C 	C 	0.79909	0.86646	0.26878	-0.263
Mof_C 	C 	0.78343	0.89837	0.2542	0.144
Mof_H 	H 	0.7587	0.8977	0.2446	-0.013
Mof_C 	C 	0.83524	0.86815	0.2834	0.144
Mof_H 	H 	0.8462	0.8466	0.2943	-0.015
Mof_C 	C 	0.80326	0.93127	0.2532	-0.174
Mof_H 	H 	0.792	0.9532	0.2433	0.091
Mof_C 	C 	0.83936	0.93274	0.2665	0.09
Mof_C 	C 	0.86124	0.96774	0.2648	0.055
Mof_C 	C 	0.8547	0.90054	0.282	-0.179
Mof_H 	H 	0.8793	0.9013	0.2919	0.085
Mof_C 	C 	0.89952	0.9669	0.2626	-0.115
Mof_H 	H 	0.9122	0.9436	0.2617	0.063
Mof_C 	C 	0.9813	0.9716	0.274	-0.037
Mof_H 	H 	0.9685	0.9506	0.2841	0.035
Mof_C 	C 	0.9793	0.9742	0.239	-0.038
Mof_H 	H 	0.9656	0.9568	0.2244	0.039
Mof_O 	O 	0.25145	0.17087	0.2521	-0.685
Mof_O 	O 	0.20683	0.19532	0.2878	-0.7
Mof_C 	C 	0.22117	0.16936	0.26978	0.631
Mof_C 	C 	0.20091	0.13354	0.26878	-0.263
Mof_C 	C 	0.21657	0.10163	0.2542	0.144
Mof_H 	H 	0.2413	0.1023	0.2446	-0.013
Mof_C 	C 	0.16476	0.13185	0.2834	0.144
Mof_H 	H 	0.1538	0.1534	0.2943	-0.015
Mof_C 	C 	0.19674	0.06873	0.2532	-0.174
Mof_H 	H 	0.208	0.0468	0.2433	0.091
Mof_C 	C 	0.16064	0.06726	0.2665	0.09
Mof_C 	C 	0.13876	0.03226	0.2648	0.056
Mof_C 	C 	0.1453	0.09946	0.282	-0.179
Mof_H 	H 	0.1207	0.0987	0.2919	0.085
Mof_C 	C 	0.10048	0.0331	0.2626	-0.116
Mof_H 	H 	0.0878	0.0564	0.2617	0.063
Mof_C 	C 	0.0187	0.0284	0.274	-0.032
Mof_H 	H 	0.0315	0.0494	0.2841	0.034
Mof_C 	C 	0.0207	0.0258	0.239	-0.037
Mof_H 	H 	0.0344	0.0432	0.2244	0.039
Mof_O 	O 	0.25145	0.82913	0.7479	-0.685
Mof_O 	O 	0.20683	0.80468	0.7122	-0.7
Mof_C 	C 	0.22117	0.83064	0.73022	0.631
Mof_C 	C 	0.20091	0.86646	0.73122	-0.263
Mof_C 	C 	0.21657	0.89837	0.7458	0.143
Mof_H 	H 	0.2413	0.8977	0.7554	-0.013
Mof_C 	C 	0.16476	0.86815	0.7166	0.144
Mof_H 	H 	0.1538	0.8466	0.7057	-0.015
Mof_C 	C 	0.19674	0.93127	0.7468	-0.174
Mof_H 	H 	0.208	0.9532	0.7567	0.091
Mof_C 	C 	0.16064	0.93274	0.7335	0.09
Mof_C 	C 	0.13876	0.96774	0.7352	0.056
Mof_C 	C 	0.1453	0.90054	0.718	-0.179
Mof_H 	H 	0.1207	0.9013	0.7081	0.085
Mof_C 	C 	0.10048	0.9669	0.7374	-0.116
Mof_H 	H 	0.0878	0.9436	0.7383	0.063
Mof_C 	C 	0.0187	0.9716	0.726	-0.032
Mof_H 	H 	0.0315	0.9506	0.7159	0.034
Mof_C 	C 	0.0207	0.9742	0.761	-0.038
Mof_H 	H 	0.0344	0.9568	0.7756	0.039
Mof_O 	O 	0.2479	0.32913	0.75145	-0.685
Mof_O 	O 	0.2122	0.30468	0.70683	-0.7
Mof_C 	C 	0.23022	0.33064	0.72117	0.631
Mof_C 	C 	0.23122	0.36646	0.70091	-0.263
Mof_C 	C 	0.2458	0.39837	0.71657	0.144
Mof_H 	H 	0.2554	0.3977	0.7413	-0.013
Mof_C 	C 	0.2166	0.36815	0.66476	0.144
Mof_H 	H 	0.2057	0.3466	0.6538	-0.015
Mof_C 	C 	0.2468	0.43127	0.69674	-0.174
Mof_H 	H 	0.2567	0.4532	0.708	0.091
Mof_C 	C 	0.2335	0.43274	0.66064	0.09
Mof_C 	C 	0.2352	0.46774	0.63876	0.056
Mof_C 	C 	0.218	0.40054	0.6453	-0.179
Mof_H 	H 	0.2081	0.4013	0.6207	0.085
Mof_C 	C 	0.2374	0.4669	0.60048	-0.115
Mof_H 	H 	0.2383	0.4436	0.5878	0.063
Mof_C 	C 	0.226	0.4716	0.5187	-0.034
Mof_H 	H 	0.2159	0.4506	0.5315	0.034
Mof_C 	C 	0.261	0.4742	0.5207	-0.038
Mof_H 	H 	0.2756	0.4568	0.5344	0.039
Mof_O 	O 	0.7521	0.67087	0.75145	-0.685
Mof_O 	O 	0.7878	0.69532	0.70683	-0.7
Mof_C 	C 	0.76978	0.66936	0.72117	0.631
Mof_C 	C 	0.76878	0.63354	0.70091	-0.263
Mof_C 	C 	0.7542	0.60163	0.71657	0.144
Mof_H 	H 	0.7446	0.6023	0.7413	-0.013
Mof_C 	C 	0.7834	0.63185	0.66476	0.144
Mof_H 	H 	0.7943	0.6534	0.6538	-0.015
Mof_C 	C 	0.7532	0.56873	0.69674	-0.174
Mof_H 	H 	0.7433	0.5468	0.708	0.091
Mof_C 	C 	0.7665	0.56726	0.66064	0.09
Mof_C 	C 	0.7648	0.53226	0.63876	0.056
Mof_C 	C 	0.782	0.59946	0.6453	-0.179
Mof_H 	H 	0.7919	0.5987	0.6207	0.085
Mof_C 	C 	0.7626	0.5331	0.60048	-0.115
Mof_H 	H 	0.7617	0.5564	0.5878	0.063
Mof_C 	C 	0.774	0.5284	0.5187	-0.034
Mof_H 	H 	0.7841	0.5494	0.5315	0.034
Mof_C 	C 	0.739	0.5258	0.5207	-0.038
Mof_H 	H 	0.7244	0.5432	0.5344	0.039
Mof_O 	O 	0.7521	0.32913	0.24855	-0.685
Mof_O 	O 	0.7878	0.30468	0.29317	-0.7
Mof_C 	C 	0.76978	0.33064	0.27883	0.631
Mof_C 	C 	0.76878	0.36646	0.29909	-0.263
Mof_C 	C 	0.7542	0.39837	0.28343	0.144
Mof_H 	H 	0.7446	0.3977	0.2587	-0.013
Mof_C 	C 	0.7834	0.36815	0.33524	0.144
Mof_H 	H 	0.7943	0.3466	0.3462	-0.015
Mof_C 	C 	0.7532	0.43127	0.30326	-0.174
Mof_H 	H 	0.7433	0.4532	0.292	0.091
Mof_C 	C 	0.7665	0.43274	0.33936	0.09
Mof_C 	C 	0.7648	0.46774	0.36124	0.056
Mof_C 	C 	0.782	0.40054	0.3547	-0.179
Mof_H 	H 	0.7919	0.4013	0.3793	0.085
Mof_C 	C 	0.7626	0.4669	0.39952	-0.115
Mof_H 	H 	0.7617	0.4436	0.4122	0.063
Mof_C 	C 	0.774	0.4716	0.4813	-0.034
Mof_H 	H 	0.7841	0.4506	0.4685	0.034
Mof_C 	C 	0.739	0.4742	0.4793	-0.038
Mof_H 	H 	0.7244	0.4568	0.4656	0.039
Mof_O 	O 	0.2479	0.67087	0.24855	-0.685
Mof_O 	O 	0.2122	0.69532	0.29317	-0.7
Mof_C 	C 	0.23022	0.66936	0.27883	0.631
Mof_C 	C 	0.23122	0.63354	0.29909	-0.263
Mof_C 	C 	0.2458	0.60163	0.28343	0.144
Mof_H 	H 	0.2554	0.6023	0.2587	-0.013
Mof_C 	C 	0.2166	0.63185	0.33524	0.144
Mof_H 	H 	0.2057	0.6534	0.3462	-0.015
Mof_C 	C 	0.2468	0.56873	0.30326	-0.174
Mof_H 	H 	0.2567	0.5468	0.292	0.091
Mof_C 	C 	0.2335	0.56726	0.33936	0.09
Mof_C 	C 	0.2352	0.53226	0.36124	0.056
Mof_C 	C 	0.218	0.59946	0.3547	-0.179
Mof_H 	H 	0.2081	0.5987	0.3793	0.085
Mof_C 	C 	0.2374	0.5331	0.39952	-0.115
Mof_H 	H 	0.2383	0.5564	0.4122	0.063
Mof_C 	C 	0.226	0.5284	0.4813	-0.034
Mof_H 	H 	0.2159	0.5494	0.4685	0.034
Mof_C 	C 	0.261	0.5258	0.4793	-0.038
Mof_H 	H 	0.2756	0.5432	0.4656	0.039
Mof_O 	O 	0.75145	0.2479	0.32913	-0.685
Mof_O 	O 	0.70683	0.2122	0.30468	-0.7
Mof_C 	C 	0.72117	0.23022	0.33064	0.631
Mof_C 	C 	0.70091	0.23122	0.36646	-0.263
Mof_C 	C 	0.71657	0.2458	0.39837	0.144
Mof_H 	H 	0.7413	0.2554	0.3977	-0.013
Mof_C 	C 	0.66476	0.2166	0.36815	0.144
Mof_H 	H 	0.6538	0.2057	0.3466	-0.015
Mof_C 	C 	0.69674	0.2468	0.43127	-0.174
Mof_H 	H 	0.708	0.2567	0.4532	0.091
Mof_C 	C 	0.66064	0.2335	0.43274	0.09
Mof_C 	C 	0.63876	0.2352	0.46774	0.056
Mof_C 	C 	0.6453	0.218	0.40054	-0.179
Mof_H 	H 	0.6207	0.2081	0.4013	0.085
Mof_C 	C 	0.60048	0.2374	0.4669	-0.115
Mof_H 	H 	0.5878	0.2383	0.4436	0.063
Mof_C 	C 	0.5187	0.226	0.4716	-0.034
Mof_H 	H 	0.5315	0.2159	0.4506	0.034
Mof_C 	C 	0.5207	0.261	0.4742	-0.038
Mof_H 	H 	0.5344	0.2756	0.4568	0.039
Mof_O 	O 	0.75145	0.7521	0.67087	-0.685
Mof_O 	O 	0.70683	0.7878	0.69532	-0.7
Mof_C 	C 	0.72117	0.76978	0.66936	0.631
Mof_C 	C 	0.70091	0.76878	0.63354	-0.263
Mof_C 	C 	0.71657	0.7542	0.60163	0.144
Mof_H 	H 	0.7413	0.7446	0.6023	-0.013
Mof_C 	C 	0.66476	0.7834	0.63185	0.144
Mof_H 	H 	0.6538	0.7943	0.6534	-0.015
Mof_C 	C 	0.69674	0.7532	0.56873	-0.174
Mof_H 	H 	0.708	0.7433	0.5468	0.091
Mof_C 	C 	0.66064	0.7665	0.56726	0.09
Mof_C 	C 	0.63876	0.7648	0.53226	0.056
Mof_C 	C 	0.6453	0.782	0.59946	-0.179
Mof_H 	H 	0.6207	0.7919	0.5987	0.085
Mof_C 	C 	0.60048	0.7626	0.5331	-0.115
Mof_H 	H 	0.5878	0.7617	0.5564	0.063
Mof_C 	C 	0.5187	0.774	0.5284	-0.034
Mof_H 	H 	0.5315	0.7841	0.5494	0.034
Mof_C 	C 	0.5207	0.739	0.5258	-0.038
Mof_H 	H 	0.5344	0.7244	0.5432	0.039
Mof_O 	O 	0.24855	0.7521	0.32913	-0.685
Mof_O 	O 	0.29317	0.7878	0.30468	-0.7
Mof_C 	C 	0.27883	0.76978	0.33064	0.631
Mof_C 	C 	0.29909	0.76878	0.36646	-0.263
Mof_C 	C 	0.28343	0.7542	0.39837	0.144
Mof_H 	H 	0.2587	0.7446	0.3977	-0.013
Mof_C 	C 	0.33524	0.7834	0.36815	0.144
Mof_H 	H 	0.3462	0.7943	0.3466	-0.015
Mof_C 	C 	0.30326	0.7532	0.43127	-0.174
Mof_H 	H 	0.292	0.7433	0.4532	0.091
Mof_C 	C 	0.33936	0.7665	0.43274	0.09
Mof_C 	C 	0.36124	0.7648	0.46774	0.056
Mof_C 	C 	0.3547	0.782	0.40054	-0.179
Mof_H 	H 	0.3793	0.7919	0.4013	0.085
Mof_C 	C 	0.39952	0.7626	0.4669	-0.115
Mof_H 	H 	0.4122	0.7617	0.4436	0.063
Mof_C 	C 	0.4813	0.774	0.4716	-0.034
Mof_H 	H 	0.4685	0.7841	0.4506	0.034
Mof_C 	C 	0.4793	0.739	0.4742	-0.038
Mof_H 	H 	0.4656	0.7244	0.4568	0.039
Mof_O 	O 	0.24855	0.2479	0.67087	-0.685
Mof_O 	O 	0.29317	0.2122	0.69532	-0.7
Mof_C 	C 	0.27883	0.23022	0.66936	0.631
Mof_C 	C 	0.29909	0.23122	0.63354	-0.263
Mof_C 	C 	0.28343	0.2458	0.60163	0.144
Mof_H 	H 	0.2587	0.2554	0.6023	-0.013
Mof_C 	C 	0.33524	0.2166	0.63185	0.144
Mof_H 	H 	0.3462	0.2057	0.6534	-0.015
Mof_C 	C 	0.30326	0.2468	0.56873	-0.174
Mof_H 	H 	0.292	0.2567	0.5468	0.091
Mof_C 	C 	0.33936	0.2335	0.56726	0.09
Mof_C 	C 	0.36124	0.2352	0.53226	0.056
Mof_C 	C 	0.3547	0.218	0.59946	-0.179
Mof_H 	H 	0.3793	0.2081	0.5987	0.085
Mof_C 	C 	0.39952	0.2374	0.5331	-0.115
Mof_H 	H 	0.4122	0.2383	0.5564	0.063
Mof_C 	C 	0.4813	0.226	0.5284	-0.034
Mof_H 	H 	0.4685	0.2159	0.5494	0.034
Mof_C 	C 	0.4793	0.261	0.5258	-0.038
Mof_H 	H 	0.4656	0.2756	0.5432	0.039
Mof_O 	O 	0.32913	0.75145	0.2479	-0.685
Mof_O 	O 	0.30468	0.70683	0.2122	-0.7
Mof_C 	C 	0.33064	0.72117	0.23022	0.631
Mof_C 	C 	0.36646	0.70091	0.23122	-0.263
Mof_C 	C 	0.39837	0.71657	0.2458	0.144
Mof_H 	H 	0.3977	0.7413	0.2554	-0.013
Mof_C 	C 	0.36815	0.66476	0.2166	0.144
Mof_H 	H 	0.3466	0.6538	0.2057	-0.015
Mof_C 	C 	0.43127	0.69674	0.2468	-0.174
Mof_H 	H 	0.4532	0.708	0.2567	0.091
Mof_C 	C 	0.43274	0.66064	0.2335	0.09
Mof_C 	C 	0.46774	0.63876	0.2352	0.056
Mof_C 	C 	0.40054	0.6453	0.218	-0.179
Mof_H 	H 	0.4013	0.6207	0.2081	0.085
Mof_C 	C 	0.4669	0.60048	0.2374	-0.115
Mof_H 	H 	0.4436	0.5878	0.2383	0.063
Mof_C 	C 	0.4716	0.5187	0.226	-0.034
Mof_H 	H 	0.4506	0.5315	0.2159	0.034
Mof_C 	C 	0.4742	0.5207	0.261	-0.038
Mof_H 	H 	0.4568	0.5344	0.2756	0.039
Mof_O 	O 	0.67087	0.75145	0.7521	-0.685
Mof_O 	O 	0.69532	0.70683	0.7878	-0.7
Mof_C 	C 	0.66936	0.72117	0.76978	0.631
Mof_C 	C 	0.63354	0.70091	0.76878	-0.263
Mof_C 	C 	0.60163	0.71657	0.7542	0.144
Mof_H 	H 	0.6023	0.7413	0.7446	-0.013
Mof_C 	C 	0.63185	0.66476	0.7834	0.144
Mof_H 	H 	0.6534	0.6538	0.7943	-0.015
Mof_C 	C 	0.56873	0.69674	0.7532	-0.174
Mof_H 	H 	0.5468	0.708	0.7433	0.091
Mof_C 	C 	0.56726	0.66064	0.7665	0.09
Mof_C 	C 	0.53226	0.63876	0.7648	0.056
Mof_C 	C 	0.59946	0.6453	0.782	-0.179
Mof_H 	H 	0.5987	0.6207	0.7919	0.085
Mof_C 	C 	0.5331	0.60048	0.7626	-0.115
Mof_H 	H 	0.5564	0.5878	0.7617	0.063
Mof_C 	C 	0.5284	0.5187	0.774	-0.034
Mof_H 	H 	0.5494	0.5315	0.7841	0.034
Mof_C 	C 	0.5258	0.5207	0.739	-0.038
Mof_H 	H 	0.5432	0.5344	0.7244	0.039
Mof_O 	O 	0.32913	0.24855	0.7521	-0.685
Mof_O 	O 	0.30468	0.29317	0.7878	-0.7
Mof_C 	C 	0.33064	0.27883	0.76978	0.631
Mof_C 	C 	0.36646	0.29909	0.76878	-0.263
Mof_C 	C 	0.39837	0.28343	0.7542	0.144
Mof_H 	H 	0.3977	0.2587	0.7446	-0.013
Mof_C 	C 	0.36815	0.33524	0.7834	0.144
Mof_H 	H 	0.3466	0.3462	0.7943	-0.015
Mof_C 	C 	0.43127	0.30326	0.7532	-0.174
Mof_H 	H 	0.4532	0.292	0.7433	0.091
Mof_C 	C 	0.43274	0.33936	0.7665	0.09
Mof_C 	C 	0.46774	0.36124	0.7648	0.056
Mof_C 	C 	0.40054	0.3547	0.782	-0.179
Mof_H 	H 	0.4013	0.3793	0.7919	0.085
Mof_C 	C 	0.4669	0.39952	0.7626	-0.115
Mof_H 	H 	0.4436	0.4122	0.7617	0.063
Mof_C 	C 	0.4716	0.4813	0.774	-0.034
Mof_H 	H 	0.4506	0.4685	0.7841	0.034
Mof_C 	C 	0.4742	0.4793	0.739	-0.038
Mof_H 	H 	0.4568	0.4656	0.7244	0.039
Mof_O 	O 	0.67087	0.24855	0.2479	-0.685
Mof_O 	O 	0.69532	0.29317	0.2122	-0.7
Mof_C 	C 	0.66936	0.27883	0.23022	0.631
Mof_C 	C 	0.63354	0.29909	0.23122	-0.263
Mof_C 	C 	0.60163	0.28343	0.2458	0.144
Mof_H 	H 	0.6023	0.2587	0.2554	-0.013
Mof_C 	C 	0.63185	0.33524	0.2166	0.144
Mof_H 	H 	0.6534	0.3462	0.2057	-0.015
Mof_C 	C 	0.56873	0.30326	0.2468	-0.174
Mof_H 	H 	0.5468	0.292	0.2567	0.091
Mof_C 	C 	0.56726	0.33936	0.2335	0.09
Mof_C 	C 	0.53226	0.36124	0.2352	0.056
Mof_C 	C 	0.59946	0.3547	0.218	-0.179
Mof_H 	H 	0.5987	0.3793	0.2081	0.085
Mof_C 	C 	0.5331	0.39952	0.2374	-0.115
Mof_H 	H 	0.5564	0.4122	0.2383	0.063
Mof_C 	C 	0.5284	0.4813	0.226	-0.034
Mof_H 	H 	0.5494	0.4685	0.2159	0.034
Mof_C 	C 	0.5258	0.4793	0.261	-0.038
Mof_H 	H 	0.5432	0.4656	0.2756	0.039
Mof_O 	O 	0.82913	0.7479	0.74855	-0.685
Mof_O 	O 	0.80468	0.7122	0.79317	-0.7
Mof_C 	C 	0.83064	0.73022	0.77883	0.631
Mof_C 	C 	0.86646	0.73122	0.79909	-0.263
Mof_C 	C 	0.89837	0.7458	0.78343	0.144
Mof_H 	H 	0.8977	0.7554	0.7587	-0.013
Mof_C 	C 	0.86815	0.7166	0.83524	0.144
Mof_H 	H 	0.8466	0.7057	0.8462	-0.015
Mof_C 	C 	0.93127	0.7468	0.80326	-0.174
Mof_H 	H 	0.9532	0.7567	0.792	0.091
Mof_C 	C 	0.93274	0.7335	0.83936	0.09
Mof_C 	C 	0.96774	0.7352	0.86124	0.055
Mof_C 	C 	0.90054	0.718	0.8547	-0.179
Mof_H 	H 	0.9013	0.7081	0.8793	0.085
Mof_C 	C 	0.9669	0.7374	0.89952	-0.115
Mof_H 	H 	0.9436	0.7383	0.9122	0.063
Mof_C 	C 	0.9716	0.726	0.9813	-0.037
Mof_H 	H 	0.9506	0.7159	0.9685	0.035
Mof_C 	C 	0.9742	0.761	0.9793	-0.038
Mof_H 	H 	0.9568	0.7756	0.9656	0.039
Mof_O 	O 	0.17087	0.2521	0.74855	-0.685
Mof_O 	O 	0.19532	0.2878	0.79317	-0.7
Mof_C 	C 	0.16936	0.26978	0.77883	0.631
Mof_C 	C 	0.13354	0.26878	0.79909	-0.263
Mof_C 	C 	0.10163	0.2542	0.78343	0.144
Mof_H 	H 	0.1023	0.2446	0.7587	-0.013
Mof_C 	C 	0.13185	0.2834	0.83524	0.144
Mof_H 	H 	0.1534	0.2943	0.8462	-0.015
Mof_C 	C 	0.06873	0.2532	0.80326	-0.174
Mof_H 	H 	0.0468	0.2433	0.792	0.091
Mof_C 	C 	0.06726	0.2665	0.83936	0.09
Mof_C 	C 	0.03226	0.2648	0.86124	0.056
Mof_C 	C 	0.09946	0.282	0.8547	-0.179
Mof_H 	H 	0.0987	0.2919	0.8793	0.085
Mof_C 	C 	0.0331	0.2626	0.89952	-0.115
Mof_H 	H 	0.0564	0.2617	0.9122	0.063
Mof_C 	C 	0.0284	0.274	0.9813	-0.037
Mof_H 	H 	0.0494	0.2841	0.9685	0.035
Mof_C 	C 	0.0258	0.239	0.9793	-0.038
Mof_H 	H 	0.0432	0.2244	0.9656	0.039
Mof_O 	O 	0.82913	0.2521	0.25145	-0.685
Mof_O 	O 	0.80468	0.2878	0.20683	-0.7
Mof_C 	C 	0.83064	0.26978	0.22117	0.631
Mof_C 	C 	0.86646	0.26878	0.20091	-0.263
Mof_C 	C 	0.89837	0.2542	0.21657	0.143
Mof_H 	H 	0.8977	0.2446	0.2413	-0.013
Mof_C 	C 	0.86815	0.2834	0.16476	0.144
Mof_H 	H 	0.8466	0.2943	0.1538	-0.015
Mof_C 	C 	0.93127	0.2532	0.19674	-0.174
Mof_H 	H 	0.9532	0.2433	0.208	0.091
Mof_C 	C 	0.93274	0.2665	0.16064	0.09
Mof_C 	C 	0.96774	0.2648	0.13876	0.056
Mof_C 	C 	0.90054	0.282	0.1453	-0.179
Mof_H 	H 	0.9013	0.2919	0.1207	0.085
Mof_C 	C 	0.9669	0.2626	0.10048	-0.116
Mof_H 	H 	0.9436	0.2617	0.0878	0.063
Mof_C 	C 	0.9716	0.274	0.0187	-0.032
Mof_H 	H 	0.9506	0.2841	0.0315	0.034
Mof_C 	C 	0.9742	0.239	0.0207	-0.038
Mof_H 	H 	0.9568	0.2244	0.0344	0.039
Mof_O 	O 	0.17087	0.7479	0.25145	-0.685
Mof_O 	O 	0.19532	0.7122	0.20683	-0.7
Mof_C 	C 	0.16936	0.73022	0.22117	0.631
Mof_C 	C 	0.13354	0.73122	0.20091	-0.263
Mof_C 	C 	0.10163	0.7458	0.21657	0.144
Mof_H 	H 	0.1023	0.7554	0.2413	-0.013
Mof_C 	C 	0.13185	0.7166	0.16476	0.144
Mof_H 	H 	0.1534	0.7057	0.1538	-0.015
Mof_C 	C 	0.06873	0.7468	0.19674	-0.174
Mof_H 	H 	0.0468	0.7567	0.208	0.091
Mof_C 	C 	0.06726	0.7335	0.16064	0.09
Mof_C 	C 	0.03226	0.7352	0.13876	0.056
Mof_C 	C 	0.09946	0.718	0.1453	-0.179
Mof_H 	H 	0.0987	0.7081	0.1207	0.085
Mof_C 	C 	0.0331	0.7374	0.10048	-0.116
Mof_H 	H 	0.0564	0.7383	0.0878	0.063
Mof_C 	C 	0.0284	0.726	0.0187	-0.032
Mof_H 	H 	0.0494	0.7159	0.0315	0.034
Mof_C 	C 	0.0258	0.761	0.0207	-0.037
Mof_H 	H 	0.0432	0.7756	0.0344	0.039
Mof_O 	O 	0.7479	0.25145	0.17087	-0.685
Mof_O 	O 	0.7122	0.20683	0.19532	-0.7
Mof_C 	C 	0.73022	0.22117	0.16936	0.631
Mof_C 	C 	0.73122	0.20091	0.13354	-0.263
Mof_C 	C 	0.7458	0.21657	0.10163	0.144
Mof_H 	H 	0.7554	0.2413	0.1023	-0.013
Mof_C 	C 	0.7166	0.16476	0.13185	0.144
Mof_H 	H 	0.7057	0.1538	0.1534	-0.015
Mof_C 	C 	0.7468	0.19674	0.06873	-0.174
Mof_H 	H 	0.7567	0.208	0.0468	0.091
Mof_C 	C 	0.7335	0.16064	0.06726	0.09
Mof_C 	C 	0.7352	0.13876	0.03226	0.056
Mof_C 	C 	0.718	0.1453	0.09946	-0.179
Mof_H 	H 	0.7081	0.1207	0.0987	0.085
Mof_C 	C 	0.7374	0.10048	0.0331	-0.116
Mof_H 	H 	0.7383	0.0878	0.0564	0.063
Mof_C 	C 	0.726	0.0187	0.0284	-0.032
Mof_H 	H 	0.7159	0.0315	0.0494	0.034
Mof_C 	C 	0.761	0.0207	0.0258	-0.037
Mof_H 	H 	0.7756	0.0344	0.0432	0.039
Mof_O 	O 	0.2521	0.25145	0.82913	-0.685
Mof_O 	O 	0.2878	0.20683	0.80468	-0.7
Mof_C 	C 	0.26978	0.22117	0.83064	0.631
Mof_C 	C 	0.26878	0.20091	0.86646	-0.263
Mof_C 	C 	0.2542	0.21657	0.89837	0.143
Mof_H 	H 	0.2446	0.2413	0.8977	-0.013
Mof_C 	C 	0.2834	0.16476	0.86815	0.144
Mof_H 	H 	0.2943	0.1538	0.8466	-0.015
Mof_C 	C 	0.2532	0.19674	0.93127	-0.174
Mof_H 	H 	0.2433	0.208	0.9532	0.091
Mof_C 	C 	0.2665	0.16064	0.93274	0.09
Mof_C 	C 	0.2648	0.13876	0.96774	0.056
Mof_C 	C 	0.282	0.1453	0.90054	-0.179
Mof_H 	H 	0.2919	0.1207	0.9013	0.085
Mof_C 	C 	0.2626	0.10048	0.9669	-0.116
Mof_H 	H 	0.2617	0.0878	0.9436	0.063
Mof_C 	C 	0.274	0.0187	0.9716	-0.032
Mof_H 	H 	0.2841	0.0315	0.9506	0.034
Mof_C 	C 	0.239	0.0207	0.9742	-0.038
Mof_H 	H 	0.2244	0.0344	0.9568	0.039
Mof_O 	O 	0.2521	0.74855	0.17087	-0.685
Mof_O 	O 	0.2878	0.79317	0.19532	-0.7
Mof_C 	C 	0.26978	0.77883	0.16936	0.631
Mof_C 	C 	0.26878	0.79909	0.13354	-0.263
Mof_C 	C 	0.2542	0.78343	0.10163	0.144
Mof_H 	H 	0.2446	0.7587	0.1023	-0.013
Mof_C 	C 	0.2834	0.83524	0.13185	0.144
Mof_H 	H 	0.2943	0.8462	0.1534	-0.015
Mof_C 	C 	0.2532	0.80326	0.06873	-0.174
Mof_H 	H 	0.2433	0.792	0.0468	0.091
Mof_C 	C 	0.2665	0.83936	0.06726	0.09
Mof_C 	C 	0.2648	0.86124	0.03226	0.056
Mof_C 	C 	0.282	0.8547	0.09946	-0.179
Mof_H 	H 	0.2919	0.8793	0.0987	0.085
Mof_C 	C 	0.2626	0.89952	0.0331	-0.115
Mof_H 	H 	0.2617	0.9122	0.0564	0.063
Mof_C 	C 	0.274	0.9813	0.0284	-0.037
Mof_H 	H 	0.2841	0.9685	0.0494	0.035
Mof_C 	C 	0.239	0.9793	0.0258	-0.038
Mof_H 	H 	0.2244	0.9656	0.0432	0.039
Mof_O 	O 	0.7479	0.74855	0.82913	-0.685
Mof_O 	O 	0.7122	0.79317	0.80468	-0.7
Mof_C 	C 	0.73022	0.77883	0.83064	0.631
Mof_C 	C 	0.73122	0.79909	0.86646	-0.263
Mof_C 	C 	0.7458	0.78343	0.89837	0.144
Mof_H 	H 	0.7554	0.7587	0.8977	-0.013
Mof_C 	C 	0.7166	0.83524	0.86815	0.144
Mof_H 	H 	0.7057	0.8462	0.8466	-0.015
Mof_C 	C 	0.7468	0.80326	0.93127	-0.174
Mof_H 	H 	0.7567	0.792	0.9532	0.091
Mof_C 	C 	0.7335	0.83936	0.93274	0.09
Mof_C 	C 	0.7352	0.86124	0.96774	0.055
Mof_C 	C 	0.718	0.8547	0.90054	-0.179
Mof_H 	H 	0.7081	0.8793	0.9013	0.085
Mof_C 	C 	0.7374	0.89952	0.9669	-0.115
Mof_H 	H 	0.7383	0.9122	0.9436	0.063
Mof_C 	C 	0.726	0.9813	0.9716	-0.037
Mof_H 	H 	0.7159	0.9685	0.9506	0.035
Mof_C 	C 	0.761	0.9793	0.9742	-0.038
Mof_H 	H 	0.7756	0.9656	0.9568	0.039
Mof_O 	O 	0.25145	0.82913	0.2521	-0.685
Mof_O 	O 	0.20683	0.80468	0.2878	-0.7
Mof_C 	C 	0.22117	0.83064	0.26978	0.631
Mof_C 	C 	0.20091	0.86646	0.26878	-0.263
Mof_C 	C 	0.21657	0.89837	0.2542	0.143
Mof_H 	H 	0.2413	0.8977	0.2446	-0.013
Mof_C 	C 	0.16476	0.86815	0.2834	0.144
Mof_H 	H 	0.1538	0.8466	0.2943	-0.015
Mof_C 	C 	0.19674	0.93127	0.2532	-0.174
Mof_H 	H 	0.208	0.9532	0.2433	0.091
Mof_C 	C 	0.16064	0.93274	0.2665	0.09
Mof_C 	C 	0.13876	0.96774	0.2648	0.056
Mof_C 	C 	0.1453	0.90054	0.282	-0.179
Mof_H 	H 	0.1207	0.9013	0.2919	0.085
Mof_C 	C 	0.10048	0.9669	0.2626	-0.116
Mof_H 	H 	0.0878	0.9436	0.2617	0.063
Mof_C 	C 	0.0187	0.9716	0.274	-0.032
Mof_H 	H 	0.0315	0.9506	0.2841	0.034
Mof_C 	C 	0.0207	0.9742	0.239	-0.038
Mof_H 	H 	0.0344	0.9568	0.2244	0.039
Mof_O 	O 	0.25145	0.17087	0.7479	-0.685
Mof_O 	O 	0.20683	0.19532	0.7122	-0.7
Mof_C 	C 	0.22117	0.16936	0.73022	0.631
Mof_C 	C 	0.20091	0.13354	0.73122	-0.263
Mof_C 	C 	0.21657	0.10163	0.7458	0.144
Mof_H 	H 	0.2413	0.1023	0.7554	-0.013
Mof_C 	C 	0.16476	0.13185	0.7166	0.144
Mof_H 	H 	0.1538	0.1534	0.7057	-0.015
Mof_C 	C 	0.19674	0.06873	0.7468	-0.174
Mof_H 	H 	0.208	0.0468	0.7567	0.091
Mof_C 	C 	0.16064	0.06726	0.7335	0.09
Mof_C 	C 	0.13876	0.03226	0.7352	0.056
Mof_C 	C 	0.1453	0.09946	0.718	-0.179
Mof_H 	H 	0.1207	0.0987	0.7081	0.085
Mof_C 	C 	0.10048	0.0331	0.7374	-0.116
Mof_H 	H 	0.0878	0.0564	0.7383	0.063
Mof_C 	C 	0.0187	0.0284	0.726	-0.032
Mof_H 	H 	0.0315	0.0494	0.7159	0.034
Mof_C 	C 	0.0207	0.0258	0.761	-0.037
Mof_H 	H 	0.0344	0.0432	0.7756	0.039
Mof_O 	O 	0.74855	0.82913	0.7479	-0.685
Mof_O 	O 	0.79317	0.80468	0.7122	-0.7
Mof_C 	C 	0.77883	0.83064	0.73022	0.631
Mof_C 	C 	0.79909	0.86646	0.73122	-0.263
Mof_C 	C 	0.78343	0.89837	0.7458	0.144
Mof_H 	H 	0.7587	0.8977	0.7554	-0.013
Mof_C 	C 	0.83524	0.86815	0.7166	0.144
Mof_H 	H 	0.8462	0.8466	0.7057	-0.015
Mof_C 	C 	0.80326	0.93127	0.7468	-0.174
Mof_H 	H 	0.792	0.9532	0.7567	0.091
Mof_C 	C 	0.83936	0.93274	0.7335	0.09
Mof_C 	C 	0.86124	0.96774	0.7352	0.055
Mof_C 	C 	0.8547	0.90054	0.718	-0.179
Mof_H 	H 	0.8793	0.9013	0.7081	0.085
Mof_C 	C 	0.89952	0.9669	0.7374	-0.115
Mof_H 	H 	0.9122	0.9436	0.7383	0.063
Mof_C 	C 	0.9813	0.9716	0.726	-0.037
Mof_H 	H 	0.9685	0.9506	0.7159	0.035
Mof_C 	C 	0.9793	0.9742	0.761	-0.038
Mof_H 	H 	0.9656	0.9568	0.7756	0.039
Mof_O 	O 	0.74855	0.17087	0.2521	-0.685
Mof_O 	O 	0.79317	0.19532	0.2878	-0.7
Mof_C 	C 	0.77883	0.16936	0.26978	0.631
Mof_C 	C 	0.79909	0.13354	0.26878	-0.263
Mof_C 	C 	0.78343	0.10163	0.2542	0.144
Mof_H 	H 	0.7587	0.1023	0.2446	-0.013
Mof_C 	C 	0.83524	0.13185	0.2834	0.144
Mof_H 	H 	0.8462	0.1534	0.2943	-0.015
Mof_C 	C 	0.80326	0.06873	0.2532	-0.174
Mof_H 	H 	0.792	0.0468	0.2433	0.091
Mof_C 	C 	0.83936	0.06726	0.2665	0.09
Mof_C 	C 	0.86124	0.03226	0.2648	0.056
Mof_C 	C 	0.8547	0.09946	0.282	-0.179
Mof_H 	H 	0.8793	0.0987	0.2919	0.085
Mof_C 	C 	0.89952	0.0331	0.2626	-0.115
Mof_H 	H 	0.9122	0.0564	0.2617	0.063
Mof_C 	C 	0.9813	0.0284	0.274	-0.037
Mof_H 	H 	0.9685	0.0494	0.2841	0.035
Mof_C 	C 	0.9793	0.0258	0.239	-0.038
Mof_H 	H 	0.9656	0.0432	0.2244	0.039
Mof_Cr	Cr	0.75	0.7125	0.2125	2.137
Mof_Cr	Cr	0.25	0.2875	0.2125	2.137
Mof_Cr	Cr	0.25	0.7125	0.7875	2.137
Mof_Cr	Cr	0.75	0.2875	0.7875	2.137
Mof_Cr	Cr	0.2125	0.75	0.7125	2.137
Mof_Cr	Cr	0.2125	0.25	0.2875	2.137
Mof_Cr	Cr	0.7875	0.25	0.7125	2.137
Mof_Cr	Cr	0.7875	0.75	0.2875	2.137
Mof_Cr	Cr	0.7125	0.2125	0.75	2.137
Mof_Cr	Cr	0.2875	0.2125	0.25	2.137
Mof_Cr	Cr	0.7125	0.7875	0.25	2.137
Mof_Cr	Cr	0.2875	0.7875	0.75	2.137
Mof_Cr	Cr	0.25	0.2875	0.7875	2.137
Mof_Cr	Cr	0.75	0.7125	0.7875	2.137
Mof_Cr	Cr	0.75	0.2875	0.2125	2.137
Mof_Cr	Cr	0.25	0.7125	0.2125	2.137
Mof_Cr	Cr	0.7875	0.25	0.2875	2.137
Mof_Cr	Cr	0.7875	0.75	0.7125	2.137
Mof_Cr	Cr	0.2125	0.75	0.2875	2.137
Mof_Cr	Cr	0.2125	0.25	0.7125	2.137
Mof_Cr	Cr	0.2875	0.7875	0.25	2.137
Mof_Cr	Cr	0.7125	0.7875	0.75	2.137
Mof_Cr	Cr	0.2875	0.2125	0.75	2.137
Mof_Cr	Cr	0.7125	0.2125	0.25	2.137
Mof_O 	O 	0.75	0.75	0.25	-1.173
Mof_O 	O 	0.25	0.25	0.25	-1.173
Mof_O 	O 	0.25	0.75	0.75	-1.173
Mof_O 	O 	0.75	0.25	0.75	-1.173
Mof_O 	O 	0.25	0.25	0.75	-1.173
Mof_O 	O 	0.75	0.75	0.75	-1.173
Mof_O 	O 	0.75	0.25	0.25	-1.173
Mof_O 	O 	0.25	0.75	0.25	-1.173
Mof_N 	N 	0.7652	0.5	0.34202	-0.126
Mof_C 	C 	0.7616	0.5	0.4199	0.051
Mof_C 	C 	0.7606	0.5	0.4612	0.01
Mof_N 	N 	0.2348	0.5	0.34202	-0.126
Mof_C 	C 	0.2384	0.5	0.4199	0.051
Mof_C 	C 	0.2394	0.5	0.4612	0.01
Mof_N 	N 	0.2348	0.5	0.65798	-0.126
Mof_C 	C 	0.2384	0.5	0.5801	0.051
Mof_C 	C 	0.2394	0.5	0.5388	0.01
Mof_N 	N 	0.7652	0.5	0.65798	-0.126
Mof_C 	C 	0.7616	0.5	0.5801	0.051
Mof_C 	C 	0.7606	0.5	0.5388	0.01
Mof_N 	N 	0.34202	0.7652	0.5	-0.126
Mof_C 	C 	0.4199	0.7616	0.5	0.051
Mof_C 	C 	0.4612	0.7606	0.5	0.01
Mof_N 	N 	0.34202	0.2348	0.5	-0.126
Mof_C 	C 	0.4199	0.2384	0.5	0.051
Mof_C 	C 	0.4612	0.2394	0.5	0.01
Mof_N 	N 	0.65798	0.2348	0.5	-0.126
Mof_C 	C 	0.5801	0.2384	0.5	0.051
Mof_C 	C 	0.5388	0.2394	0.5	0.01
Mof_N 	N 	0.65798	0.7652	0.5	-0.126
Mof_C 	C 	0.5801	0.7616	0.5	0.051
Mof_C 	C 	0.5388	0.7606	0.5	0.01
Mof_N 	N 	0.5	0.34202	0.7652	-0.126
Mof_C 	C 	0.5	0.4199	0.7616	0.051
Mof_C 	C 	0.5	0.4612	0.7606	0.01
Mof_N 	N 	0.5	0.34202	0.2348	-0.126
Mof_C 	C 	0.5	0.4199	0.2384	0.051
Mof_C 	C 	0.5	0.4612	0.2394	0.01
Mof_N 	N 	0.5	0.65798	0.2348	-0.126
Mof_C 	C 	0.5	0.5801	0.2384	0.051
Mof_C 	C 	0.5	0.5388	0.2394	0.01
Mof_N 	N 	0.5	0.65798	0.7652	-0.126
Mof_C 	C 	0.5	0.5801	0.7616	0.051
Mof_C 	C 	0.5	0.5388	0.7606	0.01
Mof_N 	N 	4.99565e-33	0.2652	0.15798	-0.126
Mof_C 	C 	1.95157e-33	0.2616	0.0801	0.052
Mof_C 	C 	-6.80146e-34	0.2606	0.0388	0.009
Mof_N 	N 	9.39898e-33	0.7348	0.15798	-0.126
Mof_C 	C 	-2.45175e-33	0.7384	0.0801	0.052
Mof_C 	C 	-7.28513e-33	0.7394	0.0388	0.009
Mof_N 	N 	-5.64958e-33	0.7348	0.84202	-0.126
Mof_C 	C 	3.44907e-33	0.7384	0.9199	0.05
Mof_C 	C 	1.24106e-32	0.7394	0.9612	0.013
Mof_N 	N 	-5.64958e-33	0.2652	0.84202	-0.126
Mof_C 	C 	-5.35757e-33	0.2616	0.9199	0.05
Mof_C 	C 	1.24106e-32	0.2606	0.9612	0.013
Mof_N 	N 	0.2652	0.84202	-0	-0.126
Mof_C 	C 	0.2616	0.9199	-0	0.05
Mof_C 	C 	0.2606	0.9612	-0	0.013
Mof_N 	N 	0.7348	0.84202	-0	-0.126
Mof_C 	C 	0.7384	0.9199	-0	0.05
Mof_C 	C 	0.7394	0.9612	-0	0.013
Mof_N 	N 	0.7348	0.15798	-0	-0.126
Mof_C 	C 	0.7384	0.0801	-0	0.052
Mof_C 	C 	0.7394	0.0388	-0	0.009
Mof_N 	N 	0.2652	0.15798	-0	-0.126
Mof_C 	C 	0.2616	0.0801	-0	0.052
Mof_C 	C 	0.2606	0.0388	-0	0.009
Mof_N 	N 	0.84202	0	0.7348	-0.126
Mof_C 	C 	0.9199	0	0.7384	0.05
Mof_C 	C 	0.9612	0	0.7394	0.013
Mof_N 	N 	0.84202	2.20166e-33	0.2652	-0.126
Mof_C 	C 	0.9199	2.20166e-33	0.2616	0.05
Mof_C 	C 	0.9612	0	0.2606	0.013
Mof_N 	N 	0.15798	2.20166e-33	0.2652	-0.126
Mof_C 	C 	0.0801	2.20166e-33	0.2616	0.052
Mof_C 	C 	0.0388	0	0.2606	0.009
Mof_N 	N 	0.15798	0	0.7348	-0.126
Mof_C 	C 	0.0801	0	0.7384	0.052
Mof_C 	C 	0.0388	0	0.7394	0.009
_end
