data_functionalizedCrystal
_audit_creation_method	'EQeq! by Chris Wilmer'
_symmetry_space_group_name_H-M	'P1'
_symmetry_Int_Tables_number	1
_symmetry_cell_setting	triclinic
loop_
_symmetry_equiv_pos_as_xyz
  x,y,z
_cell_length_a	17.355
_cell_length_b	17.355
_cell_length_c	22.74
_cell_angle_alpha	90
_cell_angle_beta	90
_cell_angle_gamma	90
loop_
_atom_site_label
_atom_site_type_symbol
_atom_site_fract_x
_atom_site_fract_y
_atom_site_fract_z
_atom_site_charge
Mof_N 	N 	0.3731	0.2291	0.4526	-0.272
Mof_N 	N 	0.6263	0.2357	0.4996	-0.271
Mof_C 	C 	0.4318	0.2027	0.466	0.126
Mof_C 	C 	0.4999	0.165	0.4815	-0.145
Mof_C 	C 	0.5671	0.2064	0.491	0.127
Mof_C 	C 	0.4998	0.0809	0.4914	0.065
Mof_C 	C 	0.5659	0.0422	0.5101	-0.074
Mof_C 	C 	0.566	0.9637	0.5191	-0.066
Mof_C 	C 	0.6934	0.2832	0.6245	0.073
Mof_C 	C 	0.6908	0.2842	0.6851	-0.129
Mof_C 	C 	0.2843	0.1955	0.5768	0.045
Mof_C 	C 	0.2859	0.1926	0.6383	-0.09
Mof_C 	C 	0.2134	0.193	0.7668	-0.076
Mof_C 	C 	0.2158	0.1929	0.8288	0.031
Mof_H 	H 	0.6117	0.0707	0.5173	0.051
Mof_H 	H 	0.6527	0.3066	0.6031	-0.013
Mof_H 	H 	0.6492	0.3087	0.7048	0.07
Mof_H 	H 	0.3104	0.1563	0.5555	-0.005
Mof_H 	H 	0.31	0.1509	0.6582	0.054
Mof_H 	H 	0.1858	0.1539	0.7465	0.049
Mof_H 	H 	0.1926	0.1515	0.8495	0.001
Mof_H 	H 	0.6118	0.9393	0.5323	0.049
Mof_N 	N 	0.1269	0.2709	0.4526	-0.271
Mof_N 	N 	0.8737	0.2643	0.4996	-0.27
Mof_C 	C 	0.0682	0.2973	0.466	0.127
Mof_C 	C 	0.0001	0.335	0.4815	-0.143
Mof_C 	C 	0.9329	0.2936	0.491	0.128
Mof_C 	C 	0.0002	0.4191	0.4914	0.061
Mof_C 	C 	0.9341	0.4578	0.5101	-0.067
Mof_C 	C 	0.934	0.5363	0.5191	-0.071
Mof_C 	C 	0.8066	0.2168	0.6245	0.073
Mof_C 	C 	0.8092	0.2158	0.6851	-0.129
Mof_C 	C 	0.2157	0.3045	0.5768	0.045
Mof_C 	C 	0.2141	0.3074	0.6383	-0.09
Mof_C 	C 	0.2866	0.307	0.7668	-0.075
Mof_C 	C 	0.2842	0.3071	0.8288	0.032
Mof_H 	H 	0.8883	0.4293	0.5173	0.049
Mof_H 	H 	0.8473	0.1934	0.6031	-0.013
Mof_H 	H 	0.8508	0.1913	0.7048	0.07
Mof_H 	H 	0.1896	0.3437	0.5555	-0.005
Mof_H 	H 	0.19	0.3491	0.6582	0.055
Mof_H 	H 	0.3142	0.3461	0.7465	0.049
Mof_H 	H 	0.3074	0.3485	0.8495	0.001
Mof_H 	H 	0.8882	0.5607	0.5323	0.05
Mof_N 	N 	0.2709	0.3731	0.4526	-0.271
Mof_N 	N 	0.2643	0.6263	0.4996	-0.27
Mof_C 	C 	0.2973	0.4318	0.466	0.127
Mof_C 	C 	0.335	0.4999	0.4815	-0.143
Mof_C 	C 	0.2936	0.5671	0.491	0.127
Mof_C 	C 	0.4191	0.4998	0.4914	0.063
Mof_C 	C 	0.4578	0.5659	0.5101	-0.07
Mof_C 	C 	0.5363	0.566	0.5191	-0.07
Mof_C 	C 	0.2168	0.6934	0.6245	0.073
Mof_C 	C 	0.2158	0.6908	0.6851	-0.129
Mof_C 	C 	0.3045	0.2843	0.5768	0.045
Mof_C 	C 	0.3074	0.2859	0.6383	-0.09
Mof_C 	C 	0.307	0.2134	0.7668	-0.076
Mof_C 	C 	0.3071	0.2158	0.8288	0.031
Mof_H 	H 	0.4293	0.6117	0.5173	0.05
Mof_H 	H 	0.1934	0.6527	0.6031	-0.013
Mof_H 	H 	0.1913	0.6492	0.7048	0.07
Mof_H 	H 	0.3437	0.3104	0.5555	-0.005
Mof_H 	H 	0.3491	0.31	0.6582	0.055
Mof_H 	H 	0.3461	0.1858	0.7465	0.049
Mof_H 	H 	0.3485	0.1926	0.8495	0.001
Mof_H 	H 	0.5607	0.6118	0.5323	0.05
Mof_N 	N 	0.2291	0.1269	0.4526	-0.271
Mof_N 	N 	0.2357	0.8737	0.4996	-0.27
Mof_C 	C 	0.2027	0.0682	0.466	0.127
Mof_C 	C 	0.165	0.0001	0.4815	-0.144
Mof_C 	C 	0.2064	0.9329	0.491	0.128
Mof_C 	C 	0.0809	0.0002	0.4914	0.063
Mof_C 	C 	0.0422	0.9341	0.5101	-0.071
Mof_C 	C 	0.9637	0.934	0.5191	-0.068
Mof_C 	C 	0.2832	0.8066	0.6245	0.074
Mof_C 	C 	0.2842	0.8092	0.6851	-0.129
Mof_C 	C 	0.1955	0.2157	0.5768	0.045
Mof_C 	C 	0.1926	0.2141	0.6383	-0.09
Mof_C 	C 	0.193	0.2866	0.7668	-0.076
Mof_C 	C 	0.1929	0.2842	0.8288	0.031
Mof_H 	H 	0.0707	0.8883	0.5173	0.051
Mof_H 	H 	0.3066	0.8473	0.6031	-0.012
Mof_H 	H 	0.3087	0.8508	0.7048	0.07
Mof_H 	H 	0.1563	0.1896	0.5555	-0.005
Mof_H 	H 	0.1509	0.19	0.6582	0.054
Mof_H 	H 	0.1539	0.3142	0.7465	0.049
Mof_H 	H 	0.1515	0.3074	0.8495	0.001
Mof_H 	H 	0.9393	0.8882	0.5323	0.049
Mof_N 	N 	0.6269	0.7291	0.0474	-0.271
Mof_N 	N 	0.3737	0.7357	0.0004	-0.276
Mof_C 	C 	0.5682	0.7027	0.034	0.11
Mof_C 	C 	0.5001	0.665	0.0185	-0.113
Mof_C 	C 	0.4329	0.7064	0.009	0.105
Mof_C 	C 	0.5002	0.5809	0.0086	-0.029
Mof_C 	C 	0.4341	0.5422	0.9899	0.039
Mof_C 	C 	0.434	0.4637	0.9809	-0.145
Mof_C 	C 	0.3066	0.7832	0.8755	0.073
Mof_C 	C 	0.3092	0.7842	0.8149	-0.126
Mof_C 	C 	0.7157	0.6955	0.9232	0.044
Mof_C 	C 	0.7141	0.6926	0.8617	-0.087
Mof_C 	C 	0.7866	0.693	0.7332	-0.077
Mof_C 	C 	0.7842	0.6929	0.6712	0.032
Mof_H 	H 	0.3883	0.5707	0.9827	0.024
Mof_H 	H 	0.3473	0.8066	0.8969	-0.006
Mof_H 	H 	0.3508	0.8087	0.7952	0.07
Mof_H 	H 	0.6896	0.6563	0.9445	0.008
Mof_H 	H 	0.69	0.6509	0.8418	0.056
Mof_H 	H 	0.8142	0.6539	0.7535	0.051
Mof_H 	H 	0.8074	0.6515	0.6505	0.001
Mof_H 	H 	0.3882	0.4393	0.9677	0.078
Mof_N 	N 	0.8731	0.7709	0.0474	-0.27
Mof_N 	N 	0.1263	0.7643	0.0004	-0.275
Mof_C 	C 	0.9318	0.7973	0.034	0.11
Mof_C 	C 	0.9999	0.835	0.0185	-0.113
Mof_C 	C 	0.0671	0.7936	0.009	0.104
Mof_C 	C 	0.9998	0.9191	0.0086	-0.026
Mof_C 	C 	0.0659	0.9578	0.9899	0.036
Mof_C 	C 	0.066	0.0363	0.9809	-0.145
Mof_C 	C 	0.1934	0.7168	0.8755	0.073
Mof_C 	C 	0.1908	0.7158	0.8149	-0.126
Mof_C 	C 	0.7843	0.8045	0.9232	0.044
Mof_C 	C 	0.7859	0.8074	0.8617	-0.087
Mof_C 	C 	0.7134	0.807	0.7332	-0.077
Mof_C 	C 	0.7158	0.8071	0.6712	0.032
Mof_H 	H 	0.1117	0.9293	0.9827	0.025
Mof_H 	H 	0.1527	0.6934	0.8969	-0.006
Mof_H 	H 	0.1492	0.6913	0.7952	0.07
Mof_H 	H 	0.8104	0.8437	0.9445	0.008
Mof_H 	H 	0.81	0.8491	0.8418	0.056
Mof_H 	H 	0.6858	0.8461	0.7535	0.051
Mof_H 	H 	0.6926	0.8485	0.6505	0.001
Mof_H 	H 	0.1118	0.0607	0.9677	0.078
Mof_N 	N 	0.7291	0.8731	0.0474	-0.271
Mof_N 	N 	0.7357	0.1263	0.0004	-0.275
Mof_C 	C 	0.7027	0.9318	0.034	0.11
Mof_C 	C 	0.665	0.9999	0.0185	-0.113
Mof_C 	C 	0.7064	0.0671	0.009	0.104
Mof_C 	C 	0.5809	0.9998	0.0086	-0.025
Mof_C 	C 	0.5422	0.0659	0.9899	0.034
Mof_C 	C 	0.4637	0.066	0.9809	-0.142
Mof_C 	C 	0.7832	0.1934	0.8755	0.073
Mof_C 	C 	0.7842	0.1908	0.8149	-0.126
Mof_C 	C 	0.6955	0.7843	0.9232	0.044
Mof_C 	C 	0.6926	0.7859	0.8617	-0.087
Mof_C 	C 	0.693	0.7134	0.7332	-0.077
Mof_C 	C 	0.6929	0.7158	0.6712	0.032
Mof_H 	H 	0.5707	0.1117	0.9827	0.026
Mof_H 	H 	0.8066	0.1527	0.8969	-0.006
Mof_H 	H 	0.8087	0.1492	0.7952	0.07
Mof_H 	H 	0.6563	0.8104	0.9445	0.008
Mof_H 	H 	0.6509	0.81	0.8418	0.056
Mof_H 	H 	0.6539	0.6858	0.7535	0.051
Mof_H 	H 	0.6515	0.6926	0.6505	0.001
Mof_H 	H 	0.4393	0.1118	0.9677	0.077
Mof_N 	N 	0.7709	0.6269	0.0474	-0.27
Mof_N 	N 	0.7643	0.3737	0.0004	-0.276
Mof_C 	C 	0.7973	0.5682	0.034	0.109
Mof_C 	C 	0.835	0.5001	0.0185	-0.113
Mof_C 	C 	0.7936	0.4329	0.009	0.105
Mof_C 	C 	0.9191	0.5002	0.0086	-0.03
Mof_C 	C 	0.9578	0.4341	0.9899	0.041
Mof_C 	C 	0.0363	0.434	0.9809	-0.148
Mof_C 	C 	0.7168	0.3066	0.8755	0.073
Mof_C 	C 	0.7158	0.3092	0.8149	-0.126
Mof_C 	C 	0.8045	0.7157	0.9232	0.044
Mof_C 	C 	0.8074	0.7141	0.8617	-0.087
Mof_C 	C 	0.807	0.7866	0.7332	-0.077
Mof_C 	C 	0.8071	0.7842	0.6712	0.032
Mof_H 	H 	0.9293	0.3883	0.9827	0.024
Mof_H 	H 	0.6934	0.3473	0.8969	-0.006
Mof_H 	H 	0.6913	0.3508	0.7952	0.07
Mof_H 	H 	0.8437	0.6896	0.9445	0.008
Mof_H 	H 	0.8491	0.69	0.8418	0.056
Mof_H 	H 	0.8461	0.8142	0.7535	0.051
Mof_H 	H 	0.8485	0.8074	0.6505	0.001
Mof_H 	H 	0.0607	0.3882	0.9677	0.079
Mof_N 	N 	0.6269	0.7709	0.5474	-0.27
Mof_N 	N 	0.3737	0.7643	0.5004	-0.27
Mof_C 	C 	0.5682	0.7973	0.534	0.127
Mof_C 	C 	0.5001	0.835	0.5185	-0.142
Mof_C 	C 	0.4329	0.7936	0.509	0.127
Mof_C 	C 	0.5002	0.9191	0.5086	0.061
Mof_C 	C 	0.4341	0.9578	0.4899	-0.066
Mof_C 	C 	0.434	0.0363	0.4809	-0.074
Mof_C 	C 	0.3066	0.7168	0.3755	0.073
Mof_C 	C 	0.3092	0.7158	0.3149	-0.128
Mof_C 	C 	0.7157	0.8045	0.4232	0.045
Mof_C 	C 	0.7141	0.8074	0.3617	-0.09
Mof_C 	C 	0.7866	0.807	0.2332	-0.075
Mof_C 	C 	0.7842	0.8071	0.1712	0.031
Mof_H 	H 	0.3883	0.9293	0.4827	0.049
Mof_H 	H 	0.3473	0.6934	0.3969	-0.013
Mof_H 	H 	0.3508	0.6913	0.2952	0.069
Mof_H 	H 	0.6896	0.8437	0.4445	-0.005
Mof_H 	H 	0.69	0.8491	0.3418	0.054
Mof_H 	H 	0.8142	0.8461	0.2535	0.049
Mof_H 	H 	0.8074	0.8485	0.1505	0.001
Mof_H 	H 	0.3882	0.0607	0.4677	0.051
Mof_N 	N 	0.8731	0.7291	0.5474	-0.271
Mof_N 	N 	0.1263	0.7357	0.5004	-0.269
Mof_C 	C 	0.9318	0.7027	0.534	0.127
Mof_C 	C 	0.9999	0.665	0.5185	-0.142
Mof_C 	C 	0.0671	0.7064	0.509	0.126
Mof_C 	C 	0.9998	0.5809	0.5086	0.065
Mof_C 	C 	0.0659	0.5422	0.4899	-0.072
Mof_C 	C 	0.066	0.4637	0.4809	-0.068
Mof_C 	C 	0.1934	0.7832	0.3755	0.073
Mof_C 	C 	0.1908	0.7842	0.3149	-0.128
Mof_C 	C 	0.7843	0.6955	0.4232	0.045
Mof_C 	C 	0.7859	0.6926	0.3617	-0.09
Mof_C 	C 	0.7134	0.693	0.2332	-0.076
Mof_C 	C 	0.7158	0.6929	0.1712	0.031
Mof_H 	H 	0.1117	0.5707	0.4827	0.051
Mof_H 	H 	0.1527	0.8066	0.3969	-0.013
Mof_H 	H 	0.1492	0.8087	0.2952	0.069
Mof_H 	H 	0.8104	0.6563	0.4445	-0.005
Mof_H 	H 	0.81	0.6509	0.3418	0.054
Mof_H 	H 	0.6858	0.6539	0.2535	0.049
Mof_H 	H 	0.6926	0.6515	0.1505	0.001
Mof_H 	H 	0.1118	0.4393	0.4677	0.049
Mof_N 	N 	0.7291	0.6269	0.5474	-0.271
Mof_N 	N 	0.7357	0.3737	0.5004	-0.27
Mof_C 	C 	0.7027	0.5682	0.534	0.127
Mof_C 	C 	0.665	0.5001	0.5185	-0.143
Mof_C 	C 	0.7064	0.4329	0.509	0.127
Mof_C 	C 	0.5809	0.5002	0.5086	0.063
Mof_C 	C 	0.5422	0.4341	0.4899	-0.07
Mof_C 	C 	0.4637	0.434	0.4809	-0.07
Mof_C 	C 	0.7832	0.3066	0.3755	0.073
Mof_C 	C 	0.7842	0.3092	0.3149	-0.128
Mof_C 	C 	0.6955	0.7157	0.4232	0.045
Mof_C 	C 	0.6926	0.7141	0.3617	-0.09
Mof_C 	C 	0.693	0.7866	0.2332	-0.075
Mof_C 	C 	0.6929	0.7842	0.1712	0.031
Mof_H 	H 	0.5707	0.3883	0.4827	0.05
Mof_H 	H 	0.8066	0.3473	0.3969	-0.013
Mof_H 	H 	0.8087	0.3508	0.2952	0.069
Mof_H 	H 	0.6563	0.6896	0.4445	-0.005
Mof_H 	H 	0.6509	0.69	0.3418	0.054
Mof_H 	H 	0.6539	0.8142	0.2535	0.049
Mof_H 	H 	0.6515	0.8074	0.1505	0.001
Mof_H 	H 	0.4393	0.3882	0.4677	0.05
Mof_N 	N 	0.7709	0.8731	0.5474	-0.27
Mof_N 	N 	0.7643	0.1263	0.5004	-0.269
Mof_C 	C 	0.7973	0.9318	0.534	0.127
Mof_C 	C 	0.835	0.9999	0.5185	-0.141
Mof_C 	C 	0.7936	0.0671	0.509	0.125
Mof_C 	C 	0.9191	0.9998	0.5086	0.063
Mof_C 	C 	0.9578	0.0659	0.4899	-0.07
Mof_C 	C 	0.0363	0.066	0.4809	-0.071
Mof_C 	C 	0.7168	0.1934	0.3755	0.073
Mof_C 	C 	0.7158	0.1908	0.3149	-0.128
Mof_C 	C 	0.8045	0.7843	0.4232	0.045
Mof_C 	C 	0.8074	0.7859	0.3617	-0.09
Mof_C 	C 	0.807	0.7134	0.2332	-0.075
Mof_C 	C 	0.8071	0.7158	0.1712	0.031
Mof_H 	H 	0.9293	0.1117	0.4827	0.05
Mof_H 	H 	0.6934	0.1527	0.3969	-0.013
Mof_H 	H 	0.6913	0.1492	0.2952	0.069
Mof_H 	H 	0.8437	0.8104	0.4445	-0.005
Mof_H 	H 	0.8491	0.81	0.3418	0.054
Mof_H 	H 	0.8461	0.6858	0.2535	0.049
Mof_H 	H 	0.8485	0.6926	0.1505	0.001
Mof_H 	H 	0.0607	0.1118	0.4677	0.05
Mof_N 	N 	0.3731	0.2709	0.9526	-0.271
Mof_N 	N 	0.6263	0.2643	0.9996	-0.261
Mof_C 	C 	0.4318	0.2973	0.966	0.144
Mof_C 	C 	0.4999	0.335	0.9815	-0.171
Mof_C 	C 	0.5671	0.2936	0.991	0.149
Mof_C 	C 	0.4998	0.4191	0.9914	0.155
Mof_C 	C 	0.5659	0.4578	0.0101	-0.178
Mof_C 	C 	0.566	0.5363	0.0191	0.006
Mof_C 	C 	0.6934	0.2168	0.1245	0.073
Mof_C 	C 	0.6908	0.2158	0.1851	-0.13
Mof_C 	C 	0.2843	0.3045	0.0768	0.046
Mof_C 	C 	0.2859	0.3074	0.1383	-0.094
Mof_C 	C 	0.2134	0.307	0.2668	-0.074
Mof_C 	C 	0.2158	0.3071	0.3288	0.031
Mof_H 	H 	0.6117	0.4293	0.0173	0.076
Mof_H 	H 	0.6527	0.1934	0.1031	-0.018
Mof_H 	H 	0.6492	0.1913	0.2048	0.068
Mof_H 	H 	0.3104	0.3437	0.0555	-0.018
Mof_H 	H 	0.31	0.3491	0.1582	0.053
Mof_H 	H 	0.1858	0.3461	0.2465	0.047
Mof_H 	H 	0.1926	0.3485	0.3495	0.001
Mof_H 	H 	0.6118	0.5607	0.0323	0.021
Mof_N 	N 	0.1269	0.2291	0.9526	-0.271
Mof_N 	N 	0.8737	0.2357	0.9996	-0.261
Mof_C 	C 	0.0682	0.2027	0.966	0.144
Mof_C 	C 	0.0001	0.165	0.9815	-0.172
Mof_C 	C 	0.9329	0.2064	0.991	0.15
Mof_C 	C 	0.0002	0.0809	0.9914	0.152
Mof_C 	C 	0.9341	0.0422	0.0101	-0.176
Mof_C 	C 	0.934	0.9637	0.0191	0.006
Mof_C 	C 	0.8066	0.2832	0.1245	0.073
Mof_C 	C 	0.8092	0.2842	0.1851	-0.13
Mof_C 	C 	0.2157	0.1955	0.0768	0.046
Mof_C 	C 	0.2141	0.1926	0.1383	-0.094
Mof_C 	C 	0.2866	0.193	0.2668	-0.074
Mof_C 	C 	0.2842	0.1929	0.3288	0.031
Mof_H 	H 	0.8883	0.0707	0.0173	0.076
Mof_H 	H 	0.8473	0.3066	0.1031	-0.018
Mof_H 	H 	0.8508	0.3087	0.2048	0.069
Mof_H 	H 	0.1896	0.1563	0.0555	-0.017
Mof_H 	H 	0.19	0.1509	0.1582	0.053
Mof_H 	H 	0.3142	0.1539	0.2465	0.047
Mof_H 	H 	0.3074	0.1515	0.3495	0.001
Mof_H 	H 	0.8882	0.9393	0.0323	0.021
Mof_N 	N 	0.2709	0.1269	0.9526	-0.271
Mof_N 	N 	0.2643	0.8737	0.9996	-0.261
Mof_C 	C 	0.2973	0.0682	0.966	0.144
Mof_C 	C 	0.335	0.0001	0.9815	-0.172
Mof_C 	C 	0.2936	0.9329	0.991	0.15
Mof_C 	C 	0.4191	0.0002	0.9914	0.151
Mof_C 	C 	0.4578	0.9341	0.0101	-0.173
Mof_C 	C 	0.5363	0.934	0.0191	0.003
Mof_C 	C 	0.2168	0.8066	0.1245	0.073
Mof_C 	C 	0.2158	0.8092	0.1851	-0.13
Mof_C 	C 	0.3045	0.2157	0.0768	0.046
Mof_C 	C 	0.3074	0.2141	0.1383	-0.094
Mof_C 	C 	0.307	0.2866	0.2668	-0.074
Mof_C 	C 	0.3071	0.2842	0.3288	0.031
Mof_H 	H 	0.4293	0.8883	0.0173	0.075
Mof_H 	H 	0.1934	0.8473	0.1031	-0.018
Mof_H 	H 	0.1913	0.8508	0.2048	0.069
Mof_H 	H 	0.3437	0.1896	0.0555	-0.018
Mof_H 	H 	0.3491	0.19	0.1582	0.053
Mof_H 	H 	0.3461	0.3142	0.2465	0.047
Mof_H 	H 	0.3485	0.3074	0.3495	0.001
Mof_H 	H 	0.5607	0.8882	0.0323	0.022
Mof_N 	N 	0.2291	0.3731	0.9526	-0.271
Mof_N 	N 	0.2357	0.6263	0.9996	-0.261
Mof_C 	C 	0.2027	0.4318	0.966	0.144
Mof_C 	C 	0.165	0.4999	0.9815	-0.172
Mof_C 	C 	0.2064	0.5671	0.991	0.149
Mof_C 	C 	0.0809	0.4998	0.9914	0.156
Mof_C 	C 	0.0422	0.5659	0.0101	-0.179
Mof_C 	C 	0.9637	0.566	0.0191	0.008
Mof_C 	C 	0.2832	0.6934	0.1245	0.073
Mof_C 	C 	0.2842	0.6908	0.1851	-0.13
Mof_C 	C 	0.1955	0.2843	0.0768	0.046
Mof_C 	C 	0.1926	0.2859	0.1383	-0.094
Mof_C 	C 	0.193	0.2134	0.2668	-0.074
Mof_C 	C 	0.1929	0.2158	0.3288	0.031
Mof_H 	H 	0.0707	0.6117	0.0173	0.077
Mof_H 	H 	0.3066	0.6527	0.1031	-0.018
Mof_H 	H 	0.3087	0.6492	0.2048	0.069
Mof_H 	H 	0.1563	0.3104	0.0555	-0.018
Mof_H 	H 	0.1509	0.31	0.1582	0.053
Mof_H 	H 	0.1539	0.1858	0.2465	0.047
Mof_H 	H 	0.1515	0.1926	0.3495	0.001
Mof_H 	H 	0.9393	0.6118	0.0323	0.021
Mof_Zn	Zn	0.25	0.25	0.45204	1.184
Mof_N 	N 	0.25	0.25	0.5472	-0.262
Mof_N 	N 	0.25	0.25	0.8588	-0.253
Mof_C 	C 	0.25	0.25	0.67	0.079
Mof_C 	C 	0.25	0.25	0.735	0.051
Mof_Zn	Zn	0.75	0.75	0.04796	1.179
Mof_N 	N 	0.75	0.75	0.9528	-0.251
Mof_N 	N 	0.75	0.75	0.6412	-0.253
Mof_C 	C 	0.75	0.75	0.83	0.073
Mof_C 	C 	0.75	0.75	0.765	0.054
Mof_Zn	Zn	0.75	0.75	0.54796	1.184
Mof_N 	N 	0.75	0.75	0.4528	-0.262
Mof_N 	N 	0.75	0.75	0.1412	-0.253
Mof_C 	C 	0.75	0.75	0.33	0.079
Mof_C 	C 	0.75	0.75	0.265	0.05
Mof_Zn	Zn	0.25	0.25	0.95204	1.188
Mof_N 	N 	0.25	0.25	0.0472	-0.272
Mof_N 	N 	0.25	0.25	0.3588	-0.252
Mof_C 	C 	0.25	0.25	0.17	0.084
Mof_C 	C 	0.25	0.25	0.235	0.047
Mof_Zn	Zn	0.75	0.25	0.5	1.185
Mof_Zn	Zn	0.25	0.75	0.5	1.185
Mof_Zn	Zn	0.25	0.75	-0	1.175
Mof_Zn	Zn	0.75	0.25	-0	1.175
Mof_N 	N 	0.75	0.25	0.5942	-0.254
Mof_C 	C 	0.75	0.25	0.7169	0.052
Mof_N 	N 	0.25	0.75	0.5942	-0.254
Mof_C 	C 	0.25	0.75	0.7169	0.052
Mof_N 	N 	0.25	0.75	0.9058	-0.247
Mof_C 	C 	0.25	0.75	0.7831	0.05
Mof_N 	N 	0.75	0.25	0.9058	-0.247
Mof_C 	C 	0.75	0.25	0.7831	0.05
Mof_N 	N 	0.25	0.75	0.4058	-0.254
Mof_C 	C 	0.25	0.75	0.2831	0.05
Mof_N 	N 	0.75	0.25	0.4058	-0.254
Mof_C 	C 	0.75	0.25	0.2831	0.05
Mof_N 	N 	0.75	0.25	0.0942	-0.258
Mof_C 	C 	0.75	0.25	0.2169	0.051
Mof_N 	N 	0.25	0.75	0.0942	-0.258
Mof_C 	C 	0.25	0.75	0.2169	0.051
_end
