data_functionalizedCrystal
_audit_creation_method	'EQeq! by Chris Wilmer'
_symmetry_space_group_name_H-M	'P1'
_symmetry_Int_Tables_number	1
_symmetry_cell_setting	triclinic
loop_
_symmetry_equiv_pos_as_xyz
  x,y,z
_cell_length_a	17.9643
_cell_length_b	22.2539
_cell_length_c	20.8724
_cell_angle_alpha	90
_cell_angle_beta	108.065
_cell_angle_gamma	90
loop_
_atom_site_label
_atom_site_type_symbol
_atom_site_fract_x
_atom_site_fract_y
_atom_site_fract_z
_atom_site_charge
Mof_Zn	Zn	0.01851	0.68426	0.07701	1.193
Mof_Zn	Zn	0.93793	0.79084	0.11015	1.192
Mof_O 	O 	0.0277	0.5808	0.9862	-0.485
Mof_O 	O 	0.9206	0.737	0.02424	-0.534
Mof_O 	O 	0.8148	0.8897	0.0738	-0.518
Mof_O 	O 	0.0957	0.5605	0.108	-0.478
Mof_O 	O 	0.9597	0.7008	0.1485	-0.521
Mof_O 	O 	0.8416	0.8499	0.1898	-0.513
Mof_O 	O 	0.1565	0.6287	0.0441	-0.493
Mof_O 	O 	0.0532	0.7743	0.1106	-0.534
Mof_O 	O 	0.9363	0.9189	0.1639	-0.515
Mof_N 	N 	0.9812	0.6307	0.9899	-0.169
Mof_N 	N 	0.8372	0.836	0.0491	-0.169
Mof_N 	N 	0.0541	0.6035	0.1329	-0.166
Mof_N 	N 	0.8849	0.7978	0.1889	-0.16
Mof_N 	N 	0.1331	0.6825	0.0672	-0.167
Mof_N 	N 	0.9851	0.8778	0.1429	-0.173
Mof_N 	N 	0.3677	0.2818	0.9338	-0.123
Mof_B 	B 	0.1053	0.5746	0.04	1.407
Mof_B 	B 	0.852	0.9014	0.1475	1.469
Mof_C 	C 	0.9155	0.6308	0.9412	0.059
Mof_H 	H 	0.9067	0.5979	0.9107	0.048
Mof_C 	C 	0.8546	0.6752	0.9285	-0.123
Mof_C 	C 	0.7868	0.6659	0.8729	0.042
Mof_H 	H 	0.7846	0.6311	0.846	0.019
Mof_C 	C 	0.723	0.7047	0.8553	-0.13
Mof_C 	C 	0.7293	0.7553	0.8948	0.046
Mof_H 	H 	0.6876	0.7835	0.8827	0.004
Mof_C 	C 	0.7936	0.7676	0.952	-0.135
Mof_C 	C 	0.8582	0.727	0.9705	0.211
Mof_C 	C 	0.7893	0.8213	0.9901	0.047
Mof_H 	H 	0.7477	0.8484	0.9703	0.027
Mof_C 	C 	0.649	0.6909	0.7954	0.332
Mof_C 	C 	0.657	0.6364	0.7545	-0.123
Mof_H 	H 	0.7014	0.6422	0.7372	0.022
Mof_H 	H 	0.666	0.6006	0.7831	0.046
Mof_H 	H 	0.6089	0.6313	0.7166	0.031
Mof_C 	C 	0.6319	0.7468	0.7477	-0.351
Mof_H 	H 	0.6265	0.7826	0.7732	0.114
Mof_H 	H 	0.6753	0.7526	0.7291	0.106
Mof_H 	H 	0.5833	0.7403	0.7108	0.123
Mof_C 	C 	0.5807	0.6844	0.8237	-0.355
Mof_H 	H 	0.5774	0.7203	0.8498	0.044
Mof_H 	H 	0.5319	0.6797	0.7865	0.117
Mof_H 	H 	0.589	0.649	0.8529	0.115
Mof_C 	C 	0.5801	0.7312	0.7908	-0.108
Mof_H 	H 	0.5669	0.7289	0.8329	0.097
Mof_H 	H 	0.5935	0.7728	0.7834	0.025
Mof_H 	H 	0.535	0.7182	0.7532	0.028
Mof_C 	C 	0.6714	0.6935	0.73	-0.282
Mof_H 	H 	0.7162	0.6671	0.7341	0.116
Mof_H 	H 	0.6268	0.6803	0.692	0.101
Mof_H 	H 	0.6853	0.7349	0.7222	0.069
Mof_C 	C 	0.623	0.6245	0.8018	-0.291
Mof_H 	H 	0.6669	0.5973	0.8049	0.078
Mof_H 	H 	0.607	0.6206	0.8424	0.068
Mof_H 	H 	0.5789	0.6142	0.7621	0.093
Mof_C 	C 	0.0469	0.5875	0.191	0.06
Mof_H 	H 	0.0695	0.5502	0.2093	0.043
Mof_C 	C 	0.0067	0.6223	0.2308	-0.149
Mof_C 	C 	0.0121	0.598	0.2947	0.086
Mof_H 	H 	0.0409	0.5619	0.3088	-0
Mof_C 	C 	0.9759	0.6255	0.3384	-0.227
Mof_C 	C 	0.9338	0.6775	0.3149	0.092
Mof_H 	H 	0.9071	0.6961	0.3424	-0.014
Mof_C 	C 	0.9286	0.7042	0.2525	-0.148
Mof_C 	C 	0.9654	0.676	0.2084	0.23
Mof_C 	C 	0.8866	0.7617	0.2373	0.066
Mof_H 	H 	0.8577	0.7734	0.2664	0.032
Mof_C 	C 	0.9797	0.5993	0.4081	0.566
Mof_C 	C 	0.9962	0.6494	0.4614	-0.842
Mof_H 	H 	0.9559	0.6806	0.4469	0.265
Mof_H 	H 	0.9953	0.6326	0.5045	0.251
Mof_H 	H 	0.0478	0.667	0.4666	0.263
Mof_C 	C 	0.8989	0.5718	0.4035	-0.827
Mof_H 	H 	0.8865	0.5395	0.3699	0.256
Mof_H 	H 	0.9005	0.5554	0.4475	0.248
Mof_H 	H 	0.8585	0.603	0.3902	0.258
Mof_C 	C 	0.0439	0.5508	0.4321	-0.843
Mof_H 	H 	0.0343	0.5184	0.3987	0.276
Mof_H 	H 	0.0953	0.5688	0.4375	0.261
Mof_H 	H 	0.0429	0.5344	0.4754	0.249
Mof_C 	C 	0.1888	0.7221	0.0803	0.072
Mof_H 	H 	0.2373	0.71	0.0751	0.027
Mof_C 	C 	0.1828	0.7841	0.1024	-0.166
Mof_C 	C 	0.2483	0.8213	0.1084	0.109
Mof_H 	H 	0.2926	0.804	0.0998	-0.024
Mof_C 	C 	0.2518	0.8812	0.126	-0.254
Mof_C 	C 	0.1859	0.9042	0.1403	0.105
Mof_H 	H 	0.1867	0.945	0.1539	-0.029
Mof_C 	C 	0.1185	0.8695	0.1354	-0.173
Mof_C 	C 	0.1156	0.8084	0.1154	0.242
Mof_C 	C 	0.0539	0.9001	0.1509	0.063
Mof_H 	H 	0.0634	0.9397	0.1683	0.018
Mof_C 	C 	0.3238	0.9197	0.1272	0.586
Mof_C 	C 	0.3148	0.9851	0.1426	-0.877
Mof_H 	H 	0.2662	0.0009	0.1112	0.267
Mof_H 	H 	0.313	0.989	0.1889	0.268
Mof_H 	H 	0.3594	0.008	0.1378	0.266
Mof_C 	C 	0.3982	0.8927	0.1743	-0.879
Mof_H 	H 	0.4019	0.8504	0.1626	0.273
Mof_H 	H 	0.4437	0.9146	0.1698	0.262
Mof_H 	H 	0.3973	0.8957	0.2209	0.27
Mof_C 	C 	0.3322	0.9188	0.0534	-0.793
Mof_H 	H 	0.3382	0.8773	0.0403	0.245
Mof_H 	H 	0.2852	0.9364	0.0214	0.245
Mof_H 	H 	0.3782	0.9423	0.0531	0.241
Mof_C 	C 	0.1501	0.5192	0.0191	-0.615
Mof_C 	C 	0.2287	0.5064	0.0549	0.342
Mof_H 	H 	0.2545	0.5304	0.0929	-0.094
Mof_C 	C 	0.2701	0.4601	0.0369	-0.303
Mof_H 	H 	0.323	0.4533	0.063	0.122
Mof_C 	C 	0.2357	0.4233	0.9813	0.18
Mof_C 	C 	0.1576	0.4361	0.9444	-0.298
Mof_H 	H 	0.1323	0.4125	0.9058	0.124
Mof_C 	C 	0.1162	0.4826	0.963	0.341
Mof_H 	H 	0.0633	0.4896	0.9368	-0.066
Mof_C 	C 	0.2796	0.3724	0.963	-0.022
Mof_C 	C 	0.3604	0.3751	0.9789	-0.076
Mof_H 	H 	0.3861	0.4103	0.0007	0.044
Mof_C 	C 	0.4046	0.3309	0.9655	0.038
Mof_H 	H 	0.46	0.3343	0.978	0.013
Mof_C 	C 	0.2874	0.2762	0.9125	0.022
Mof_H 	H 	0.263	0.2417	0.8879	0.028
Mof_C 	C 	0.2424	0.322	0.9276	-0.065
Mof_H 	H 	0.1869	0.3188	0.914	0.039
Mof_C 	C 	0.8082	0.9579	0.1662	-0.667
Mof_C 	C 	0.779	0.0051	0.1201	0.358
Mof_H 	H 	0.7857	0.0025	0.0768	-0.113
Mof_C 	C 	0.7407	0.0553	0.1347	-0.326
Mof_H 	H 	0.7233	0.0862	0.1021	0.121
Mof_C 	C 	0.7278	0.0603	0.1975	0.195
Mof_C 	C 	0.7584	0.0152	0.2443	-0.339
Mof_H 	H 	0.7519	0.0178	0.2877	0.146
Mof_C 	C 	0.798	0.967	0.2294	0.388
Mof_H 	H 	0.8195	0.9382	0.2638	-0.095
Mof_C 	C 	0.6857	0.118	0.2089	-0.017
Mof_C 	C 	0.6374	0.1526	0.1572	-0.044
Mof_H 	H 	0.629	0.1414	0.1116	0.028
Mof_C 	C 	0.6014	0.2037	0.1721	0.015
Mof_H 	H 	0.5684	0.2273	0.1367	0.019
Mof_N 	N 	0.6137	0.2201	0.2388	-0.096
Mof_C 	C 	0.662	0.1856	0.2906	0.009
Mof_H 	H 	0.6704	0.1968	0.3362	0.009
Mof_C 	C 	0.698	0.1345	0.2757	-0.046
Mof_H 	H 	0.731	0.1109	0.3111	0.034
Mof_C 	C 	0.6716	0.0991	0.2227	-0.003
Mof_C 	C 	0.5939	0.1045	0.183	-0.061
Mof_H 	H 	0.5746	0.0811	0.1432	0.034
Mof_C 	C 	0.5444	0.1442	0.2015	0.022
Mof_H 	H 	0.4913	0.1479	0.1744	0.011
Mof_N 	N 	0.5726	0.1784	0.2597	-0.101
Mof_C 	C 	0.6503	0.173	0.2994	0.042
Mof_H 	H 	0.6696	0.1965	0.3391	0.008
Mof_C 	C 	0.6998	0.1334	0.2809	-0.019
Mof_H 	H 	0.7529	0.1297	0.308	0.029
Mof_Zn	Zn	0.98149	0.18426	0.42299	1.194
Mof_Zn	Zn	0.06207	0.29084	0.38985	1.193
Mof_O 	O 	0.9723	0.0808	0.5138	-0.485
Mof_O 	O 	0.0794	0.237	0.47576	-0.535
Mof_O 	O 	0.1852	0.3897	0.4262	-0.518
Mof_O 	O 	0.9043	0.0605	0.392	-0.477
Mof_O 	O 	0.0403	0.2008	0.3515	-0.521
Mof_O 	O 	0.1584	0.3499	0.3102	-0.512
Mof_O 	O 	0.8435	0.1287	0.4559	-0.492
Mof_O 	O 	0.9468	0.2743	0.3894	-0.533
Mof_O 	O 	0.0637	0.4189	0.3361	-0.515
Mof_N 	N 	0.0188	0.1307	0.5101	-0.166
Mof_N 	N 	0.1628	0.336	0.4509	-0.169
Mof_N 	N 	0.9459	0.1035	0.3671	-0.165
Mof_N 	N 	0.1151	0.2978	0.3111	-0.159
Mof_N 	N 	0.8669	0.1825	0.4328	-0.166
Mof_N 	N 	0.0149	0.3778	0.3571	-0.173
Mof_N 	N 	0.6323	0.7818	0.5662	-0.122
Mof_B 	B 	0.8947	0.0746	0.46	1.408
Mof_B 	B 	0.148	0.4014	0.3525	1.469
Mof_C 	C 	0.0845	0.1308	0.5588	0.06
Mof_H 	H 	0.0933	0.0979	0.5893	0.048
Mof_C 	C 	0.1454	0.1752	0.5715	-0.123
Mof_C 	C 	0.2132	0.1659	0.6271	0.042
Mof_H 	H 	0.2154	0.1311	0.654	0.019
Mof_C 	C 	0.277	0.2047	0.6447	-0.131
Mof_C 	C 	0.2707	0.2553	0.6052	0.046
Mof_H 	H 	0.3124	0.2835	0.6173	0.004
Mof_C 	C 	0.2064	0.2676	0.548	-0.136
Mof_C 	C 	0.1418	0.227	0.5295	0.213
Mof_C 	C 	0.2107	0.3213	0.5099	0.049
Mof_H 	H 	0.2523	0.3484	0.5297	0.027
Mof_C 	C 	0.351	0.1909	0.7046	0.333
Mof_C 	C 	0.343	0.1364	0.7455	-0.124
Mof_H 	H 	0.2986	0.1422	0.7628	0.022
Mof_H 	H 	0.334	0.1006	0.7169	0.046
Mof_H 	H 	0.3911	0.1313	0.7834	0.032
Mof_C 	C 	0.3681	0.2468	0.7523	-0.351
Mof_H 	H 	0.3735	0.2826	0.7268	0.114
Mof_H 	H 	0.3247	0.2526	0.7709	0.106
Mof_H 	H 	0.4167	0.2403	0.7892	0.123
Mof_C 	C 	0.4193	0.1844	0.6763	-0.354
Mof_H 	H 	0.4226	0.2203	0.6502	0.044
Mof_H 	H 	0.4681	0.1797	0.7135	0.117
Mof_H 	H 	0.411	0.149	0.6471	0.115
Mof_C 	C 	0.4199	0.2312	0.7092	-0.108
Mof_H 	H 	0.4331	0.2289	0.6671	0.097
Mof_H 	H 	0.4065	0.2728	0.7166	0.025
Mof_H 	H 	0.465	0.2182	0.7468	0.028
Mof_C 	C 	0.3286	0.1935	0.77	-0.282
Mof_H 	H 	0.2838	0.1671	0.7659	0.116
Mof_H 	H 	0.3732	0.1803	0.808	0.101
Mof_H 	H 	0.3147	0.2349	0.7778	0.069
Mof_C 	C 	0.377	0.1245	0.6982	-0.291
Mof_H 	H 	0.3331	0.0973	0.6951	0.078
Mof_H 	H 	0.393	0.1206	0.6576	0.069
Mof_H 	H 	0.4211	0.1142	0.7379	0.093
Mof_C 	C 	0.9531	0.0875	0.309	0.06
Mof_H 	H 	0.9305	0.0502	0.2907	0.042
Mof_C 	C 	0.9933	0.1223	0.2692	-0.148
Mof_C 	C 	0.9879	0.098	0.2053	0.088
Mof_H 	H 	0.9591	0.0619	0.1912	-0.001
Mof_C 	C 	0.0241	0.1255	0.1616	-0.23
Mof_C 	C 	0.0662	0.1775	0.1851	0.093
Mof_H 	H 	0.0929	0.1961	0.1576	-0.015
Mof_C 	C 	0.0714	0.2042	0.2475	-0.148
Mof_C 	C 	0.0346	0.176	0.2916	0.23
Mof_C 	C 	0.1134	0.2617	0.2627	0.066
Mof_H 	H 	0.1423	0.2734	0.2336	0.032
Mof_C 	C 	0.0203	0.0993	0.0919	0.57
Mof_C 	C 	0.0038	0.1494	0.0386	-0.854
Mof_H 	H 	0.0441	0.1806	0.0531	0.268
Mof_H 	H 	0.0047	0.1326	0.9955	0.256
Mof_H 	H 	0.9522	0.167	0.0334	0.267
Mof_C 	C 	0.1011	0.0718	0.0965	-0.83
Mof_H 	H 	0.1135	0.0395	0.1301	0.257
Mof_H 	H 	0.0995	0.0554	0.0525	0.249
Mof_H 	H 	0.1415	0.103	0.1098	0.259
Mof_C 	C 	0.9561	0.0508	0.0679	-0.845
Mof_H 	H 	0.9657	0.0184	0.1013	0.276
Mof_H 	H 	0.9047	0.0688	0.0625	0.262
Mof_H 	H 	0.9571	0.0344	0.0246	0.249
Mof_C 	C 	0.8112	0.2221	0.4197	0.072
Mof_H 	H 	0.7627	0.21	0.4249	0.027
Mof_C 	C 	0.8172	0.2841	0.3976	-0.167
Mof_C 	C 	0.7517	0.3213	0.3916	0.11
Mof_H 	H 	0.7074	0.304	0.4002	-0.024
Mof_C 	C 	0.7482	0.3812	0.374	-0.255
Mof_C 	C 	0.8141	0.4042	0.3597	0.105
Mof_H 	H 	0.8133	0.445	0.3461	-0.03
Mof_C 	C 	0.8815	0.3695	0.3646	-0.174
Mof_C 	C 	0.8844	0.3084	0.3846	0.243
Mof_C 	C 	0.9461	0.4001	0.3491	0.065
Mof_H 	H 	0.9366	0.4397	0.3317	0.017
Mof_C 	C 	0.6762	0.4197	0.3728	0.588
Mof_C 	C 	0.6852	0.4851	0.3574	-0.883
Mof_H 	H 	0.7338	0.5009	0.3888	0.269
Mof_H 	H 	0.687	0.489	0.3111	0.27
Mof_H 	H 	0.6406	0.508	0.3622	0.268
Mof_C 	C 	0.6018	0.3927	0.3257	-0.881
Mof_H 	H 	0.5981	0.3504	0.3374	0.273
Mof_H 	H 	0.5563	0.4146	0.3302	0.262
Mof_H 	H 	0.6027	0.3957	0.2791	0.271
Mof_C 	C 	0.6678	0.4188	0.4466	-0.795
Mof_H 	H 	0.6618	0.3773	0.4597	0.245
Mof_H 	H 	0.7148	0.4364	0.4786	0.245
Mof_H 	H 	0.6218	0.4423	0.4469	0.241
Mof_C 	C 	0.8499	0.0192	0.4809	-0.614
Mof_C 	C 	0.7713	0.0064	0.4451	0.34
Mof_H 	H 	0.7455	0.0304	0.4071	-0.093
Mof_C 	C 	0.7299	0.9601	0.4631	-0.299
Mof_H 	H 	0.677	0.9533	0.437	0.121
Mof_C 	C 	0.7643	0.9233	0.5187	0.178
Mof_C 	C 	0.8424	0.9361	0.5556	-0.296
Mof_H 	H 	0.8677	0.9125	0.5942	0.123
Mof_C 	C 	0.8838	0.9826	0.537	0.34
Mof_H 	H 	0.9367	0.9896	0.5632	-0.065
Mof_C 	C 	0.7204	0.8724	0.537	-0.021
Mof_C 	C 	0.6396	0.8751	0.5211	-0.078
Mof_H 	H 	0.6139	0.9103	0.4993	0.045
Mof_C 	C 	0.5954	0.8309	0.5345	0.039
Mof_H 	H 	0.54	0.8343	0.522	0.013
Mof_C 	C 	0.7126	0.7762	0.5875	0.023
Mof_H 	H 	0.737	0.7417	0.6121	0.027
Mof_C 	C 	0.7576	0.822	0.5724	-0.066
Mof_H 	H 	0.8131	0.8188	0.586	0.039
Mof_C 	C 	0.1918	0.4579	0.3338	-0.669
Mof_C 	C 	0.221	0.5051	0.3799	0.36
Mof_H 	H 	0.2143	0.5025	0.4232	-0.113
Mof_C 	C 	0.2593	0.5553	0.3653	-0.327
Mof_H 	H 	0.2767	0.5862	0.3979	0.122
Mof_C 	C 	0.2722	0.5603	0.3025	0.195
Mof_C 	C 	0.2416	0.5152	0.2557	-0.337
Mof_H 	H 	0.2481	0.5178	0.2123	0.145
Mof_C 	C 	0.202	0.467	0.2706	0.386
Mof_H 	H 	0.1805	0.4382	0.2362	-0.094
Mof_C 	C 	0.3143	0.618	0.2911	-0.017
Mof_C 	C 	0.3626	0.6526	0.3428	-0.044
Mof_H 	H 	0.371	0.6414	0.3884	0.028
Mof_C 	C 	0.3986	0.7037	0.3279	0.015
Mof_H 	H 	0.4316	0.7273	0.3633	0.02
Mof_N 	N 	0.3863	0.7201	0.2612	-0.096
Mof_C 	C 	0.338	0.6856	0.2094	0.009
Mof_H 	H 	0.3296	0.6968	0.1638	0.009
Mof_C 	C 	0.302	0.6345	0.2243	-0.046
Mof_H 	H 	0.269	0.6109	0.1889	0.034
Mof_C 	C 	0.3284	0.5991	0.2773	-0.003
Mof_C 	C 	0.4061	0.6045	0.317	-0.061
Mof_H 	H 	0.4254	0.5811	0.3568	0.035
Mof_C 	C 	0.4556	0.6442	0.2985	0.023
Mof_H 	H 	0.5087	0.6479	0.3256	0.011
Mof_N 	N 	0.4274	0.6784	0.2403	-0.101
Mof_C 	C 	0.3497	0.673	0.2006	0.042
Mof_H 	H 	0.3304	0.6965	0.1609	0.008
Mof_C 	C 	0.3002	0.6334	0.2191	-0.019
Mof_H 	H 	0.2471	0.6297	0.192	0.029
Mof_Zn	Zn	0.98149	0.31574	0.92299	1.194
Mof_Zn	Zn	0.06207	0.20916	0.88985	1.193
Mof_O 	O 	0.9723	0.4192	0.0138	-0.484
Mof_O 	O 	0.0794	0.263	0.97576	-0.533
Mof_O 	O 	0.1852	0.1103	0.9262	-0.517
Mof_O 	O 	0.9043	0.4395	0.892	-0.477
Mof_O 	O 	0.0403	0.2992	0.8515	-0.52
Mof_O 	O 	0.1584	0.1501	0.8102	-0.512
Mof_O 	O 	0.8435	0.3713	0.9559	-0.492
Mof_O 	O 	0.9468	0.2257	0.8894	-0.533
Mof_O 	O 	0.0637	0.0811	0.8361	-0.514
Mof_N 	N 	0.0188	0.3693	0.0101	-0.168
Mof_N 	N 	0.1628	0.164	0.9509	-0.168
Mof_N 	N 	0.9459	0.3965	0.8671	-0.165
Mof_N 	N 	0.1151	0.2022	0.8111	-0.159
Mof_N 	N 	0.8669	0.3175	0.9328	-0.166
Mof_N 	N 	0.0149	0.1222	0.8571	-0.172
Mof_N 	N 	0.6323	0.7182	0.0662	-0.122
Mof_B 	B 	0.8947	0.4254	0.96	1.407
Mof_B 	B 	0.148	0.0986	0.8525	1.469
Mof_C 	C 	0.0845	0.3692	0.0588	0.059
Mof_H 	H 	0.0933	0.4021	0.0893	0.048
Mof_C 	C 	0.1454	0.3248	0.0715	-0.123
Mof_C 	C 	0.2132	0.3341	0.1271	0.042
Mof_H 	H 	0.2154	0.3689	0.154	0.019
Mof_C 	C 	0.277	0.2953	0.1447	-0.13
Mof_C 	C 	0.2707	0.2447	0.1052	0.046
Mof_H 	H 	0.3124	0.2165	0.1173	0.004
Mof_C 	C 	0.2064	0.2324	0.048	-0.135
Mof_C 	C 	0.1418	0.273	0.0295	0.211
Mof_C 	C 	0.2107	0.1787	0.0099	0.047
Mof_H 	H 	0.2523	0.1516	0.0297	0.027
Mof_C 	C 	0.351	0.3091	0.2046	0.332
Mof_C 	C 	0.343	0.3636	0.2455	-0.123
Mof_H 	H 	0.2986	0.3578	0.2628	0.022
Mof_H 	H 	0.334	0.3994	0.2169	0.046
Mof_H 	H 	0.3911	0.3687	0.2834	0.031
Mof_C 	C 	0.3681	0.2532	0.2523	-0.351
Mof_H 	H 	0.3735	0.2174	0.2268	0.114
Mof_H 	H 	0.3247	0.2474	0.2709	0.106
Mof_H 	H 	0.4167	0.2597	0.2892	0.123
Mof_C 	C 	0.4193	0.3156	0.1763	-0.355
Mof_H 	H 	0.4226	0.2797	0.1502	0.044
Mof_H 	H 	0.4681	0.3203	0.2135	0.117
Mof_H 	H 	0.411	0.351	0.1471	0.115
Mof_C 	C 	0.4199	0.2688	0.2092	-0.108
Mof_H 	H 	0.4331	0.2711	0.1671	0.097
Mof_H 	H 	0.4065	0.2272	0.2166	0.025
Mof_H 	H 	0.465	0.2818	0.2468	0.028
Mof_C 	C 	0.3286	0.3065	0.27	-0.282
Mof_H 	H 	0.2838	0.3329	0.2659	0.116
Mof_H 	H 	0.3732	0.3197	0.308	0.101
Mof_H 	H 	0.3147	0.2651	0.2778	0.069
Mof_C 	C 	0.377	0.3755	0.1982	-0.291
Mof_H 	H 	0.3331	0.4027	0.1951	0.078
Mof_H 	H 	0.393	0.3794	0.1576	0.068
Mof_H 	H 	0.4211	0.3858	0.2379	0.093
Mof_C 	C 	0.9531	0.4125	0.809	0.06
Mof_H 	H 	0.9305	0.4498	0.7907	0.043
Mof_C 	C 	0.9933	0.3777	0.7692	-0.149
Mof_C 	C 	0.9879	0.402	0.7053	0.086
Mof_H 	H 	0.9591	0.4381	0.6912	-0
Mof_C 	C 	0.0241	0.3745	0.6616	-0.227
Mof_C 	C 	0.0662	0.3225	0.6851	0.092
Mof_H 	H 	0.0929	0.3039	0.6576	-0.014
Mof_C 	C 	0.0714	0.2958	0.7475	-0.148
Mof_C 	C 	0.0346	0.324	0.7916	0.23
Mof_C 	C 	0.1134	0.2383	0.7627	0.066
Mof_H 	H 	0.1423	0.2266	0.7336	0.032
Mof_C 	C 	0.0203	0.4007	0.5919	0.566
Mof_C 	C 	0.0038	0.3506	0.5386	-0.842
Mof_H 	H 	0.0441	0.3194	0.5531	0.265
Mof_H 	H 	0.0047	0.3674	0.4955	0.251
Mof_H 	H 	0.9522	0.333	0.5334	0.263
Mof_C 	C 	0.1011	0.4282	0.5965	-0.827
Mof_H 	H 	0.1135	0.4605	0.6301	0.256
Mof_H 	H 	0.0995	0.4446	0.5525	0.248
Mof_H 	H 	0.1415	0.397	0.6098	0.258
Mof_C 	C 	0.9561	0.4492	0.5679	-0.843
Mof_H 	H 	0.9657	0.4816	0.6013	0.276
Mof_H 	H 	0.9047	0.4312	0.5625	0.261
Mof_H 	H 	0.9571	0.4656	0.5246	0.249
Mof_C 	C 	0.8112	0.2779	0.9197	0.072
Mof_H 	H 	0.7627	0.29	0.9249	0.027
Mof_C 	C 	0.8172	0.2159	0.8976	-0.166
Mof_C 	C 	0.7517	0.1787	0.8916	0.109
Mof_H 	H 	0.7074	0.196	0.9002	-0.024
Mof_C 	C 	0.7482	0.1188	0.874	-0.254
Mof_C 	C 	0.8141	0.0958	0.8597	0.105
Mof_H 	H 	0.8133	0.055	0.8461	-0.029
Mof_C 	C 	0.8815	0.1305	0.8646	-0.173
Mof_C 	C 	0.8844	0.1916	0.8846	0.242
Mof_C 	C 	0.9461	0.0999	0.8491	0.063
Mof_H 	H 	0.9366	0.0603	0.8317	0.018
Mof_C 	C 	0.6762	0.0803	0.8728	0.586
Mof_C 	C 	0.6852	0.0149	0.8574	-0.877
Mof_H 	H 	0.7338	0.9991	0.8888	0.267
Mof_H 	H 	0.687	0.011	0.8111	0.268
Mof_H 	H 	0.6406	0.992	0.8622	0.266
Mof_C 	C 	0.6018	0.1073	0.8257	-0.879
Mof_H 	H 	0.5981	0.1496	0.8374	0.273
Mof_H 	H 	0.5563	0.0854	0.8302	0.262
Mof_H 	H 	0.6027	0.1043	0.7791	0.27
Mof_C 	C 	0.6678	0.0812	0.9466	-0.793
Mof_H 	H 	0.6618	0.1227	0.9597	0.245
Mof_H 	H 	0.7148	0.0636	0.9786	0.245
Mof_H 	H 	0.6218	0.0577	0.9469	0.241
Mof_C 	C 	0.8499	0.4808	0.9809	-0.615
Mof_C 	C 	0.7713	0.4936	0.9451	0.342
Mof_H 	H 	0.7455	0.4696	0.9071	-0.094
Mof_C 	C 	0.7299	0.5399	0.9631	-0.303
Mof_H 	H 	0.677	0.5467	0.937	0.122
Mof_C 	C 	0.7643	0.5767	0.0187	0.18
Mof_C 	C 	0.8424	0.5639	0.0556	-0.298
Mof_H 	H 	0.8677	0.5875	0.0942	0.124
Mof_C 	C 	0.8838	0.5174	0.037	0.341
Mof_H 	H 	0.9367	0.5104	0.0632	-0.066
Mof_C 	C 	0.7204	0.6276	0.037	-0.022
Mof_C 	C 	0.6396	0.6249	0.0211	-0.076
Mof_H 	H 	0.6139	0.5897	0.9993	0.044
Mof_C 	C 	0.5954	0.6691	0.0345	0.038
Mof_H 	H 	0.54	0.6657	0.022	0.013
Mof_C 	C 	0.7126	0.7238	0.0875	0.022
Mof_H 	H 	0.737	0.7583	0.1121	0.028
Mof_C 	C 	0.7576	0.678	0.0724	-0.065
Mof_H 	H 	0.8131	0.6812	0.086	0.039
Mof_C 	C 	0.1918	0.0421	0.8338	-0.667
Mof_C 	C 	0.221	0.9949	0.8799	0.358
Mof_H 	H 	0.2143	0.9975	0.9232	-0.113
Mof_C 	C 	0.2593	0.9447	0.8653	-0.326
Mof_H 	H 	0.2767	0.9138	0.8979	0.121
Mof_C 	C 	0.2722	0.9397	0.8025	0.195
Mof_C 	C 	0.2416	0.9848	0.7557	-0.339
Mof_H 	H 	0.2481	0.9822	0.7123	0.146
Mof_C 	C 	0.202	0.033	0.7706	0.388
Mof_H 	H 	0.1805	0.0618	0.7362	-0.095
Mof_C 	C 	0.3143	0.882	0.7911	-0.017
Mof_C 	C 	0.3626	0.8474	0.8428	-0.044
Mof_H 	H 	0.371	0.8586	0.8884	0.028
Mof_C 	C 	0.3986	0.7963	0.8279	0.015
Mof_H 	H 	0.4316	0.7727	0.8633	0.019
Mof_N 	N 	0.3863	0.7799	0.7612	-0.096
Mof_C 	C 	0.338	0.8144	0.7094	0.009
Mof_H 	H 	0.3296	0.8032	0.6638	0.009
Mof_C 	C 	0.302	0.8655	0.7243	-0.046
Mof_H 	H 	0.269	0.8891	0.6889	0.034
Mof_C 	C 	0.3284	0.9009	0.7773	-0.003
Mof_C 	C 	0.4061	0.8955	0.817	-0.061
Mof_H 	H 	0.4254	0.9189	0.8568	0.034
Mof_C 	C 	0.4556	0.8558	0.7985	0.022
Mof_H 	H 	0.5087	0.8521	0.8256	0.011
Mof_N 	N 	0.4274	0.8216	0.7403	-0.101
Mof_C 	C 	0.3497	0.827	0.7006	0.042
Mof_H 	H 	0.3304	0.8035	0.6609	0.008
Mof_C 	C 	0.3002	0.8666	0.7191	-0.019
Mof_H 	H 	0.2471	0.8703	0.692	0.029
Mof_Zn	Zn	0.01851	0.81574	0.57701	1.194
Mof_Zn	Zn	0.93793	0.70916	0.61015	1.193
Mof_O 	O 	0.0277	0.9192	0.4862	-0.485
Mof_O 	O 	0.9206	0.763	0.52424	-0.535
Mof_O 	O 	0.8148	0.6103	0.5738	-0.518
Mof_O 	O 	0.0957	0.9395	0.608	-0.477
Mof_O 	O 	0.9597	0.7992	0.6485	-0.521
Mof_O 	O 	0.8416	0.6501	0.6898	-0.512
Mof_O 	O 	0.1565	0.8713	0.5441	-0.492
Mof_O 	O 	0.0532	0.7257	0.6106	-0.533
Mof_O 	O 	0.9363	0.5811	0.6639	-0.515
Mof_N 	N 	0.9812	0.8693	0.4899	-0.166
Mof_N 	N 	0.8372	0.664	0.5491	-0.169
Mof_N 	N 	0.0541	0.8965	0.6329	-0.165
Mof_N 	N 	0.8849	0.7022	0.6889	-0.159
Mof_N 	N 	0.1331	0.8175	0.5672	-0.166
Mof_N 	N 	0.9851	0.6222	0.6429	-0.173
Mof_N 	N 	0.3677	0.2182	0.4338	-0.122
Mof_B 	B 	0.1053	0.9254	0.54	1.408
Mof_B 	B 	0.852	0.5986	0.6475	1.469
Mof_C 	C 	0.9155	0.8692	0.4412	0.06
Mof_H 	H 	0.9067	0.9021	0.4107	0.048
Mof_C 	C 	0.8546	0.8248	0.4285	-0.123
Mof_C 	C 	0.7868	0.8341	0.3729	0.042
Mof_H 	H 	0.7846	0.8689	0.346	0.019
Mof_C 	C 	0.723	0.7953	0.3553	-0.131
Mof_C 	C 	0.7293	0.7447	0.3948	0.046
Mof_H 	H 	0.6876	0.7165	0.3827	0.004
Mof_C 	C 	0.7936	0.7324	0.452	-0.136
Mof_C 	C 	0.8582	0.773	0.4705	0.213
Mof_C 	C 	0.7893	0.6787	0.4901	0.049
Mof_H 	H 	0.7477	0.6516	0.4703	0.027
Mof_C 	C 	0.649	0.8091	0.2954	0.333
Mof_C 	C 	0.657	0.8636	0.2545	-0.124
Mof_H 	H 	0.7014	0.8578	0.2372	0.022
Mof_H 	H 	0.666	0.8994	0.2831	0.046
Mof_H 	H 	0.6089	0.8687	0.2166	0.032
Mof_C 	C 	0.6319	0.7532	0.2477	-0.351
Mof_H 	H 	0.6265	0.7174	0.2732	0.114
Mof_H 	H 	0.6753	0.7474	0.2291	0.106
Mof_H 	H 	0.5833	0.7597	0.2108	0.123
Mof_C 	C 	0.5807	0.8156	0.3237	-0.354
Mof_H 	H 	0.5774	0.7797	0.3498	0.044
Mof_H 	H 	0.5319	0.8203	0.2865	0.117
Mof_H 	H 	0.589	0.851	0.3529	0.115
Mof_C 	C 	0.5801	0.7688	0.2908	-0.108
Mof_H 	H 	0.5669	0.7711	0.3329	0.097
Mof_H 	H 	0.5935	0.7272	0.2834	0.025
Mof_H 	H 	0.535	0.7818	0.2532	0.028
Mof_C 	C 	0.6714	0.8065	0.23	-0.282
Mof_H 	H 	0.7162	0.8329	0.2341	0.116
Mof_H 	H 	0.6268	0.8197	0.192	0.101
Mof_H 	H 	0.6853	0.7651	0.2222	0.069
Mof_C 	C 	0.623	0.8755	0.3018	-0.291
Mof_H 	H 	0.6669	0.9027	0.3049	0.078
Mof_H 	H 	0.607	0.8794	0.3424	0.069
Mof_H 	H 	0.5789	0.8858	0.2621	0.093
Mof_C 	C 	0.0469	0.9125	0.691	0.06
Mof_H 	H 	0.0695	0.9498	0.7093	0.042
Mof_C 	C 	0.0067	0.8777	0.7308	-0.148
Mof_C 	C 	0.0121	0.902	0.7947	0.088
Mof_H 	H 	0.0409	0.9381	0.8088	-0.001
Mof_C 	C 	0.9759	0.8745	0.8384	-0.23
Mof_C 	C 	0.9338	0.8225	0.8149	0.093
Mof_H 	H 	0.9071	0.8039	0.8424	-0.015
Mof_C 	C 	0.9286	0.7958	0.7525	-0.148
Mof_C 	C 	0.9654	0.824	0.7084	0.23
Mof_C 	C 	0.8866	0.7383	0.7373	0.066
Mof_H 	H 	0.8577	0.7266	0.7664	0.032
Mof_C 	C 	0.9797	0.9007	0.9081	0.57
Mof_C 	C 	0.9962	0.8506	0.9614	-0.854
Mof_H 	H 	0.9559	0.8194	0.9469	0.268
Mof_H 	H 	0.9953	0.8674	0.0045	0.256
Mof_H 	H 	0.0478	0.833	0.9666	0.267
Mof_C 	C 	0.8989	0.9282	0.9035	-0.83
Mof_H 	H 	0.8865	0.9605	0.8699	0.257
Mof_H 	H 	0.9005	0.9446	0.9475	0.249
Mof_H 	H 	0.8585	0.897	0.8902	0.259
Mof_C 	C 	0.0439	0.9492	0.9321	-0.845
Mof_H 	H 	0.0343	0.9816	0.8987	0.276
Mof_H 	H 	0.0953	0.9312	0.9375	0.262
Mof_H 	H 	0.0429	0.9656	0.9754	0.249
Mof_C 	C 	0.1888	0.7779	0.5803	0.072
Mof_H 	H 	0.2373	0.79	0.5751	0.027
Mof_C 	C 	0.1828	0.7159	0.6024	-0.167
Mof_C 	C 	0.2483	0.6787	0.6084	0.11
Mof_H 	H 	0.2926	0.696	0.5998	-0.024
Mof_C 	C 	0.2518	0.6188	0.626	-0.255
Mof_C 	C 	0.1859	0.5958	0.6403	0.105
Mof_H 	H 	0.1867	0.555	0.6539	-0.03
Mof_C 	C 	0.1185	0.6305	0.6354	-0.174
Mof_C 	C 	0.1156	0.6916	0.6154	0.243
Mof_C 	C 	0.0539	0.5999	0.6509	0.065
Mof_H 	H 	0.0634	0.5603	0.6683	0.017
Mof_C 	C 	0.3238	0.5803	0.6272	0.588
Mof_C 	C 	0.3148	0.5149	0.6426	-0.883
Mof_H 	H 	0.2662	0.4991	0.6112	0.269
Mof_H 	H 	0.313	0.511	0.6889	0.27
Mof_H 	H 	0.3594	0.492	0.6378	0.268
Mof_C 	C 	0.3982	0.6073	0.6743	-0.881
Mof_H 	H 	0.4019	0.6496	0.6626	0.273
Mof_H 	H 	0.4437	0.5854	0.6698	0.262
Mof_H 	H 	0.3973	0.6043	0.7209	0.271
Mof_C 	C 	0.3322	0.5812	0.5534	-0.795
Mof_H 	H 	0.3382	0.6227	0.5403	0.245
Mof_H 	H 	0.2852	0.5636	0.5214	0.245
Mof_H 	H 	0.3782	0.5577	0.5531	0.241
Mof_C 	C 	0.1501	0.9808	0.5191	-0.614
Mof_C 	C 	0.2287	0.9936	0.5549	0.34
Mof_H 	H 	0.2545	0.9696	0.5929	-0.093
Mof_C 	C 	0.2701	0.0399	0.5369	-0.299
Mof_H 	H 	0.323	0.0467	0.563	0.121
Mof_C 	C 	0.2357	0.0767	0.4813	0.178
Mof_C 	C 	0.1576	0.0639	0.4444	-0.296
Mof_H 	H 	0.1323	0.0875	0.4058	0.123
Mof_C 	C 	0.1162	0.0174	0.463	0.34
Mof_H 	H 	0.0633	0.0104	0.4368	-0.065
Mof_C 	C 	0.2796	0.1276	0.463	-0.021
Mof_C 	C 	0.3604	0.1249	0.4789	-0.078
Mof_H 	H 	0.3861	0.0897	0.5007	0.045
Mof_C 	C 	0.4046	0.1691	0.4655	0.039
Mof_H 	H 	0.46	0.1657	0.478	0.013
Mof_C 	C 	0.2874	0.2238	0.4125	0.023
Mof_H 	H 	0.263	0.2583	0.3879	0.027
Mof_C 	C 	0.2424	0.178	0.4276	-0.066
Mof_H 	H 	0.1869	0.1812	0.414	0.039
Mof_C 	C 	0.8082	0.5421	0.6662	-0.669
Mof_C 	C 	0.779	0.4949	0.6201	0.36
Mof_H 	H 	0.7857	0.4975	0.5768	-0.113
Mof_C 	C 	0.7407	0.4447	0.6347	-0.327
Mof_H 	H 	0.7233	0.4138	0.6021	0.122
Mof_C 	C 	0.7278	0.4397	0.6975	0.195
Mof_C 	C 	0.7584	0.4848	0.7443	-0.337
Mof_H 	H 	0.7519	0.4822	0.7877	0.145
Mof_C 	C 	0.798	0.533	0.7294	0.386
Mof_H 	H 	0.8195	0.5618	0.7638	-0.094
Mof_C 	C 	0.6857	0.382	0.7089	-0.017
Mof_C 	C 	0.6374	0.3474	0.6572	-0.044
Mof_H 	H 	0.629	0.3586	0.6116	0.028
Mof_C 	C 	0.6014	0.2963	0.6721	0.015
Mof_H 	H 	0.5684	0.2727	0.6367	0.02
Mof_N 	N 	0.6137	0.2799	0.7388	-0.096
Mof_C 	C 	0.662	0.3144	0.7906	0.009
Mof_H 	H 	0.6704	0.3032	0.8362	0.009
Mof_C 	C 	0.698	0.3655	0.7757	-0.046
Mof_H 	H 	0.731	0.3891	0.8111	0.034
Mof_C 	C 	0.6716	0.4009	0.7227	-0.003
Mof_C 	C 	0.5939	0.3955	0.683	-0.061
Mof_H 	H 	0.5746	0.4189	0.6432	0.035
Mof_C 	C 	0.5444	0.3558	0.7015	0.023
Mof_H 	H 	0.4913	0.3521	0.6744	0.011
Mof_N 	N 	0.5726	0.3216	0.7597	-0.101
Mof_C 	C 	0.6503	0.327	0.7994	0.042
Mof_H 	H 	0.6696	0.3035	0.8391	0.008
Mof_C 	C 	0.6998	0.3666	0.7809	-0.019
Mof_H 	H 	0.7529	0.3703	0.808	0.029
_end
