data_functionalizedCrystal
_audit_creation_method	'EQeq! by Chris Wilmer'
_symmetry_space_group_name_H-M	'P1'
_symmetry_Int_Tables_number	1
_symmetry_cell_setting	triclinic
loop_
_symmetry_equiv_pos_as_xyz
  x,y,z
_cell_length_a	26.3
_cell_length_b	26.3
_cell_length_c	28.48
_cell_angle_alpha	90
_cell_angle_beta	90
_cell_angle_gamma	90
loop_
_atom_site_label
_atom_site_type_symbol
_atom_site_fract_x
_atom_site_fract_y
_atom_site_fract_z
_atom_site_charge
Mof_N 	N 	0.60218	0.79583	0.19646	-0.204
Mof_O 	O 	0.52083	0.57143	0.14942	-0.412
Mof_O 	O 	0.52183	0.57087	0.22859	-0.406
Mof_O 	O 	0.4861	0.93481	0.04925	-0.414
Mof_O 	O 	0.56261	0.97291	0.04833	-0.417
Mof_C 	C 	0.52803	0.59182	0.18905	0.37
Mof_C 	C 	0.54618	0.64591	0.1906	-0.16
Mof_C 	C 	0.55476	0.6687	0.2331	0.102
Mof_H 	H 	0.5488	0.6511	0.2609	0.011
Mof_C 	C 	0.57289	0.71947	0.23432	-0.207
Mof_H 	H 	0.5787	0.7353	0.263	0.107
Mof_C 	C 	0.58187	0.74504	0.19373	0.18
Mof_C 	C 	0.57321	0.72122	0.15106	-0.215
Mof_H 	H 	0.5794	0.7388	0.1233	0.106
Mof_C 	C 	0.5557	0.67235	0.14921	0.111
Mof_H 	H 	0.5502	0.6568	0.1203	0.003
Mof_C 	C 	0.532	0.94014	0.06189	0.384
Mof_C 	C 	0.55014	0.90327	0.09903	-0.168
Mof_C 	C 	0.59984	0.90329	0.1129	0.117
Mof_H 	H 	0.622	0.9273	0.1005	0.004
Mof_C 	C 	0.61788	0.86804	0.14523	-0.218
Mof_H 	H 	0.6521	0.8678	0.1534	0.109
Mof_C 	C 	0.58475	0.83325	0.16536	0.189
Mof_C 	C 	0.5337	0.83466	0.15248	-0.222
Mof_H 	H 	0.5109	0.8118	0.1658	0.113
Mof_C 	C 	0.51691	0.86919	0.12053	0.122
Mof_H 	H 	0.4826	0.8701	0.1129	0.003
Mof_C 	C 	0.64768	0.8027	0.22314	0.223
Mof_C 	C 	0.68409	0.76544	0.2232	-0.263
Mof_H 	H 	0.6796	0.736	0.2055	0.126
Mof_C 	C 	0.4862	0.5419	0.3342	0.057
Mof_H 	H 	0.4768	0.571	0.3179	0.018
Mof_Pd	Pd	0.4837	0.52859	0.5017	0.208
Mof_N 	N 	0.4766	0.5911	0.4525	-0.109
Mof_C 	C 	0.4663	0.5901	0.4064	0.08
Mof_H 	H 	0.449	0.6158	0.3907	0.007
Mof_C 	C 	0.4858	0.5424	0.3829	-0.125
Mof_O 	O 	0.5284	0.496	0.4539	-0.243
Mof_C 	C 	0.5022	0.6381	0.4738	-0.063
Mof_H 	H 	0.537	0.6398	0.4627	0.052
Mof_H 	H 	0.4847	0.6683	0.4627	0.049
Mof_N 	N 	0.39782	0.20417	0.19646	-0.203
Mof_O 	O 	0.47917	0.42857	0.14942	-0.411
Mof_O 	O 	0.47817	0.42913	0.22859	-0.405
Mof_O 	O 	0.5139	0.06519	0.04925	-0.426
Mof_O 	O 	0.43739	0.02709	0.04833	-0.438
Mof_C 	C 	0.47197	0.40818	0.18905	0.371
Mof_C 	C 	0.45382	0.35409	0.1906	-0.159
Mof_C 	C 	0.44524	0.3313	0.2331	0.102
Mof_H 	H 	0.4512	0.3489	0.2609	0.011
Mof_C 	C 	0.42711	0.28053	0.23432	-0.207
Mof_H 	H 	0.4213	0.2647	0.263	0.106
Mof_C 	C 	0.41813	0.25496	0.19373	0.179
Mof_C 	C 	0.42679	0.27878	0.15106	-0.215
Mof_H 	H 	0.4206	0.2612	0.1233	0.106
Mof_C 	C 	0.4443	0.32765	0.14921	0.111
Mof_H 	H 	0.4498	0.3432	0.1203	0.002
Mof_C 	C 	0.468	0.05986	0.06189	0.387
Mof_C 	C 	0.44986	0.09673	0.09903	-0.177
Mof_C 	C 	0.40016	0.09671	0.1129	0.121
Mof_H 	H 	0.378	0.0727	0.1005	-0.003
Mof_C 	C 	0.38212	0.13196	0.14523	-0.223
Mof_H 	H 	0.3479	0.1322	0.1534	0.108
Mof_C 	C 	0.41525	0.16675	0.16536	0.19
Mof_C 	C 	0.4663	0.16534	0.15248	-0.227
Mof_H 	H 	0.4891	0.1882	0.1658	0.112
Mof_C 	C 	0.48309	0.13081	0.12053	0.125
Mof_H 	H 	0.5174	0.1299	0.1129	-0.002
Mof_C 	C 	0.35232	0.1973	0.22314	0.22
Mof_C 	C 	0.31591	0.23456	0.2232	-0.262
Mof_H 	H 	0.3204	0.264	0.2055	0.124
Mof_C 	C 	0.5138	0.4581	0.3342	0.058
Mof_H 	H 	0.5232	0.429	0.3179	0.018
Mof_Pd	Pd	0.5163	0.47141	0.5017	0.208
Mof_N 	N 	0.5234	0.4089	0.4525	-0.11
Mof_C 	C 	0.5337	0.4099	0.4064	0.08
Mof_H 	H 	0.551	0.3842	0.3907	0.006
Mof_C 	C 	0.5142	0.4576	0.3829	-0.126
Mof_O 	O 	0.4716	0.504	0.4539	-0.243
Mof_C 	C 	0.4978	0.3619	0.4738	-0.063
Mof_H 	H 	0.463	0.3602	0.4627	0.051
Mof_H 	H 	0.5153	0.3317	0.4627	0.048
Mof_N 	N 	0.20417	0.60218	0.19646	-0.204
Mof_O 	O 	0.42857	0.52083	0.14942	-0.411
Mof_O 	O 	0.42913	0.52183	0.22859	-0.405
Mof_O 	O 	0.06519	0.4861	0.04925	-0.426
Mof_O 	O 	0.02709	0.56261	0.04833	-0.437
Mof_C 	C 	0.40818	0.52803	0.18905	0.371
Mof_C 	C 	0.35409	0.54618	0.1906	-0.159
Mof_C 	C 	0.3313	0.55476	0.2331	0.102
Mof_H 	H 	0.3489	0.5488	0.2609	0.011
Mof_C 	C 	0.28053	0.57289	0.23432	-0.207
Mof_H 	H 	0.2647	0.5787	0.263	0.106
Mof_C 	C 	0.25496	0.58187	0.19373	0.18
Mof_C 	C 	0.27878	0.57321	0.15106	-0.215
Mof_H 	H 	0.2612	0.5794	0.1233	0.106
Mof_C 	C 	0.32765	0.5557	0.14921	0.111
Mof_H 	H 	0.3432	0.5502	0.1203	0.002
Mof_C 	C 	0.05986	0.532	0.06189	0.387
Mof_C 	C 	0.09673	0.55014	0.09903	-0.177
Mof_C 	C 	0.09671	0.59984	0.1129	0.121
Mof_H 	H 	0.0727	0.622	0.1005	-0.003
Mof_C 	C 	0.13196	0.61788	0.14523	-0.223
Mof_H 	H 	0.1322	0.6521	0.1534	0.108
Mof_C 	C 	0.16675	0.58475	0.16536	0.19
Mof_C 	C 	0.16534	0.5337	0.15248	-0.227
Mof_H 	H 	0.1882	0.5109	0.1658	0.112
Mof_C 	C 	0.13081	0.51691	0.12053	0.125
Mof_H 	H 	0.1299	0.4826	0.1129	-0.003
Mof_C 	C 	0.1973	0.64768	0.22314	0.22
Mof_C 	C 	0.23456	0.68409	0.2232	-0.261
Mof_H 	H 	0.264	0.6796	0.2055	0.125
Mof_C 	C 	0.4581	0.4862	0.3342	0.058
Mof_H 	H 	0.429	0.4768	0.3179	0.018
Mof_Pd	Pd	0.47141	0.4837	0.5017	0.208
Mof_N 	N 	0.4089	0.4766	0.4525	-0.11
Mof_C 	C 	0.4099	0.4663	0.4064	0.08
Mof_H 	H 	0.3842	0.449	0.3907	0.006
Mof_C 	C 	0.4576	0.4858	0.3829	-0.126
Mof_O 	O 	0.504	0.5284	0.4539	-0.243
Mof_C 	C 	0.3619	0.5022	0.4738	-0.063
Mof_H 	H 	0.3602	0.537	0.4627	0.051
Mof_H 	H 	0.3317	0.4847	0.4627	0.048
Mof_N 	N 	0.79583	0.39782	0.19646	-0.203
Mof_O 	O 	0.57143	0.47917	0.14942	-0.411
Mof_O 	O 	0.57087	0.47817	0.22859	-0.405
Mof_O 	O 	0.93481	0.5139	0.04925	-0.413
Mof_O 	O 	0.97291	0.43739	0.04833	-0.416
Mof_C 	C 	0.59182	0.47197	0.18905	0.371
Mof_C 	C 	0.64591	0.45382	0.1906	-0.159
Mof_C 	C 	0.6687	0.44524	0.2331	0.102
Mof_H 	H 	0.6511	0.4512	0.2609	0.011
Mof_C 	C 	0.71947	0.42711	0.23432	-0.207
Mof_H 	H 	0.7353	0.4213	0.263	0.107
Mof_C 	C 	0.74504	0.41813	0.19373	0.18
Mof_C 	C 	0.72122	0.42679	0.15106	-0.215
Mof_H 	H 	0.7388	0.4206	0.1233	0.106
Mof_C 	C 	0.67235	0.4443	0.14921	0.111
Mof_H 	H 	0.6568	0.4498	0.1203	0.002
Mof_C 	C 	0.94014	0.468	0.06189	0.384
Mof_C 	C 	0.90327	0.44986	0.09903	-0.168
Mof_C 	C 	0.90329	0.40016	0.1129	0.117
Mof_H 	H 	0.9273	0.378	0.1005	0.004
Mof_C 	C 	0.86804	0.38212	0.14523	-0.218
Mof_H 	H 	0.8678	0.3479	0.1534	0.109
Mof_C 	C 	0.83325	0.41525	0.16536	0.189
Mof_C 	C 	0.83466	0.4663	0.15248	-0.221
Mof_H 	H 	0.8118	0.4891	0.1658	0.113
Mof_C 	C 	0.86919	0.48309	0.12053	0.122
Mof_H 	H 	0.8701	0.5174	0.1129	0.003
Mof_C 	C 	0.8027	0.35232	0.22314	0.223
Mof_C 	C 	0.76544	0.31591	0.2232	-0.264
Mof_H 	H 	0.736	0.3204	0.2055	0.125
Mof_C 	C 	0.5419	0.5138	0.3342	0.057
Mof_H 	H 	0.571	0.5232	0.3179	0.018
Mof_Pd	Pd	0.52859	0.5163	0.5017	0.208
Mof_N 	N 	0.5911	0.5234	0.4525	-0.109
Mof_C 	C 	0.5901	0.5337	0.4064	0.08
Mof_H 	H 	0.6158	0.551	0.3907	0.007
Mof_C 	C 	0.5424	0.5142	0.3829	-0.125
Mof_O 	O 	0.496	0.4716	0.4539	-0.243
Mof_C 	C 	0.6381	0.4978	0.4738	-0.063
Mof_H 	H 	0.6398	0.463	0.4627	0.051
Mof_H 	H 	0.6683	0.5153	0.4627	0.049
Mof_N 	N 	0.89782	0.29583	0.30354	-0.208
Mof_O 	O 	0.97917	0.07143	0.35058	-0.401
Mof_O 	O 	0.97817	0.07087	0.27141	-0.396
Mof_O 	O 	0.0139	0.43481	0.45075	-0.44
Mof_O 	O 	0.93739	0.47291	0.45167	-0.427
Mof_C 	C 	0.97197	0.09182	0.31095	0.368
Mof_C 	C 	0.95382	0.14591	0.3094	-0.155
Mof_C 	C 	0.94524	0.1687	0.2669	0.101
Mof_H 	H 	0.9512	0.1511	0.2391	0.014
Mof_C 	C 	0.92711	0.21947	0.26568	-0.205
Mof_H 	H 	0.9213	0.2353	0.237	0.107
Mof_C 	C 	0.91813	0.24504	0.30627	0.181
Mof_C 	C 	0.92679	0.22122	0.34894	-0.213
Mof_H 	H 	0.9206	0.2388	0.3767	0.11
Mof_C 	C 	0.9443	0.17235	0.35079	0.111
Mof_H 	H 	0.9498	0.1568	0.3797	0.008
Mof_C 	C 	0.968	0.44014	0.43811	0.432
Mof_C 	C 	0.94986	0.40327	0.40097	-0.216
Mof_C 	C 	0.90016	0.40329	0.3871	0.158
Mof_H 	H 	0.878	0.4273	0.3995	-0.009
Mof_C 	C 	0.88212	0.36804	0.35477	-0.251
Mof_H 	H 	0.8479	0.3678	0.3466	0.121
Mof_C 	C 	0.91525	0.33325	0.33464	0.221
Mof_C 	C 	0.9663	0.33466	0.34752	-0.279
Mof_H 	H 	0.9891	0.3118	0.3342	0.139
Mof_C 	C 	0.98309	0.36919	0.37947	0.216
Mof_H 	H 	0.0174	0.3701	0.3871	-0.046
Mof_C 	C 	0.85232	0.3027	0.27686	0.224
Mof_C 	C 	0.81591	0.26544	0.2768	-0.264
Mof_H 	H 	0.8204	0.236	0.2945	0.126
Mof_C 	C 	0.0138	0.0419	0.1658	0.033
Mof_H 	H 	0.0232	0.071	0.1821	0.019
Mof_Pd	Pd	0.0163	0.02859	0.9983	0.042
Mof_N 	N 	0.0234	0.0911	0.0475	-0.122
Mof_C 	C 	0.0337	0.0901	0.0936	0.067
Mof_H 	H 	0.051	0.1158	0.1093	0.004
Mof_C 	C 	0.0142	0.0424	0.1171	-0.118
Mof_O 	O 	0.9716	0.996	0.0461	-0.206
Mof_C 	C 	0.9978	0.1381	0.0262	-0.068
Mof_H 	H 	0.963	0.1398	0.0373	0.051
Mof_H 	H 	0.0153	0.1683	0.0373	0.027
Mof_N 	N 	0.10218	0.70417	0.30354	-0.198
Mof_O 	O 	0.02083	0.92857	0.35058	-0.403
Mof_O 	O 	0.02183	0.92913	0.27141	-0.402
Mof_O 	O 	0.9861	0.56519	0.45075	-0.384
Mof_O 	O 	0.06261	0.52709	0.45167	-0.411
Mof_C 	C 	0.02803	0.90818	0.31095	0.369
Mof_C 	C 	0.04618	0.85409	0.3094	-0.157
Mof_C 	C 	0.05476	0.8313	0.2669	0.1
Mof_H 	H 	0.0488	0.8489	0.2391	0.008
Mof_C 	C 	0.07289	0.78053	0.26568	-0.206
Mof_H 	H 	0.0787	0.7647	0.237	0.103
Mof_C 	C 	0.08187	0.75496	0.30627	0.178
Mof_C 	C 	0.07321	0.77878	0.34894	-0.212
Mof_H 	H 	0.0794	0.7612	0.3767	0.108
Mof_C 	C 	0.0557	0.82765	0.35079	0.11
Mof_H 	H 	0.0502	0.8432	0.3797	0.007
Mof_C 	C 	0.032	0.55986	0.43811	0.34
Mof_C 	C 	0.05014	0.59673	0.40097	-0.12
Mof_C 	C 	0.09984	0.59671	0.3871	0.078
Mof_H 	H 	0.122	0.5727	0.3995	0.017
Mof_C 	C 	0.11788	0.63196	0.35477	-0.184
Mof_H 	H 	0.1521	0.6322	0.3466	0.098
Mof_C 	C 	0.08475	0.66675	0.33464	0.158
Mof_C 	C 	0.0337	0.66534	0.34752	-0.165
Mof_H 	H 	0.0109	0.6882	0.3342	0.088
Mof_C 	C 	0.01691	0.63081	0.37947	0.031
Mof_H 	H 	0.9826	0.6299	0.3871	0.052
Mof_C 	C 	0.14768	0.6973	0.27686	0.22
Mof_C 	C 	0.18409	0.73456	0.2768	-0.261
Mof_H 	H 	0.1796	0.764	0.2945	0.127
Mof_C 	C 	0.9862	0.9581	0.1658	0.078
Mof_H 	H 	0.9768	0.929	0.1821	0.019
Mof_Pd	Pd	0.9837	0.97141	0.9983	0.113
Mof_N 	N 	0.9766	0.9089	0.0475	-0.095
Mof_C 	C 	0.9663	0.9099	0.0936	0.066
Mof_H 	H 	0.949	0.8842	0.1093	0.013
Mof_C 	C 	0.9858	0.9576	0.1171	-0.076
Mof_O 	O 	0.0284	0.004	0.0461	-0.285
Mof_C 	C 	0.0022	0.8619	0.0262	-0.159
Mof_H 	H 	0.037	0.8602	0.0373	0.067
Mof_H 	H 	0.9847	0.8317	0.0373	0.083
Mof_N 	N 	0.29583	0.10218	0.30354	-0.198
Mof_O 	O 	0.07143	0.02083	0.35058	-0.419
Mof_O 	O 	0.07087	0.02183	0.27141	-0.415
Mof_O 	O 	0.43481	0.9861	0.45075	-0.384
Mof_O 	O 	0.47291	0.06261	0.45167	-0.411
Mof_C 	C 	0.09182	0.02803	0.31095	0.37
Mof_C 	C 	0.14591	0.04618	0.3094	-0.163
Mof_C 	C 	0.1687	0.05476	0.2669	0.102
Mof_H 	H 	0.1511	0.0488	0.2391	0.006
Mof_C 	C 	0.21947	0.07289	0.26568	-0.209
Mof_H 	H 	0.2353	0.0787	0.237	0.103
Mof_C 	C 	0.24504	0.08187	0.30627	0.179
Mof_C 	C 	0.22122	0.07321	0.34894	-0.216
Mof_H 	H 	0.2388	0.0794	0.3767	0.108
Mof_C 	C 	0.17235	0.0557	0.35079	0.111
Mof_H 	H 	0.1568	0.0502	0.3797	0.002
Mof_C 	C 	0.44014	0.032	0.43811	0.339
Mof_C 	C 	0.40327	0.05014	0.40097	-0.119
Mof_C 	C 	0.40329	0.09984	0.3871	0.076
Mof_H 	H 	0.4273	0.122	0.3995	0.018
Mof_C 	C 	0.36804	0.11788	0.35477	-0.184
Mof_H 	H 	0.3678	0.1521	0.3466	0.097
Mof_C 	C 	0.33325	0.08475	0.33464	0.157
Mof_C 	C 	0.33466	0.0337	0.34752	-0.163
Mof_H 	H 	0.3118	0.0109	0.3342	0.087
Mof_C 	C 	0.36919	0.01691	0.37947	0.028
Mof_H 	H 	0.3701	0.9826	0.3871	0.053
Mof_C 	C 	0.3027	0.14768	0.27686	0.219
Mof_C 	C 	0.26544	0.18409	0.2768	-0.261
Mof_H 	H 	0.236	0.1796	0.2945	0.124
Mof_C 	C 	0.0419	0.9862	0.1658	0.056
Mof_H 	H 	0.071	0.9768	0.1821	0.024
Mof_Pd	Pd	0.02859	0.9837	0.9983	0.134
Mof_N 	N 	0.0911	0.9766	0.0475	-0.093
Mof_C 	C 	0.0901	0.9663	0.0936	0.067
Mof_H 	H 	0.1158	0.949	0.1093	0.01
Mof_C 	C 	0.0424	0.9858	0.1171	-0.086
Mof_O 	O 	0.996	0.0284	0.0461	-0.191
Mof_C 	C 	0.1381	0.0022	0.0262	-0.162
Mof_H 	H 	0.1398	0.037	0.0373	0.068
Mof_H 	H 	0.1683	0.9847	0.0373	0.084
Mof_N 	N 	0.70417	0.89782	0.30354	-0.208
Mof_O 	O 	0.92857	0.97917	0.35058	-0.388
Mof_O 	O 	0.92913	0.97817	0.27141	-0.385
Mof_O 	O 	0.56519	0.0139	0.45075	-0.439
Mof_O 	O 	0.52709	0.93739	0.45167	-0.427
Mof_C 	C 	0.90818	0.97197	0.31095	0.367
Mof_C 	C 	0.85409	0.95382	0.3094	-0.15
Mof_C 	C 	0.8313	0.94524	0.2669	0.1
Mof_H 	H 	0.8489	0.9512	0.2391	0.015
Mof_C 	C 	0.78053	0.92711	0.26568	-0.203
Mof_H 	H 	0.7647	0.9213	0.237	0.107
Mof_C 	C 	0.75496	0.91813	0.30627	0.18
Mof_C 	C 	0.77878	0.92679	0.34894	-0.211
Mof_H 	H 	0.7612	0.9206	0.3767	0.111
Mof_C 	C 	0.82765	0.9443	0.35079	0.109
Mof_H 	H 	0.8432	0.9498	0.3797	0.012
Mof_C 	C 	0.55986	0.968	0.43811	0.431
Mof_C 	C 	0.59673	0.94986	0.40097	-0.215
Mof_C 	C 	0.59671	0.90016	0.3871	0.158
Mof_H 	H 	0.5727	0.878	0.3995	-0.008
Mof_C 	C 	0.63196	0.88212	0.35477	-0.25
Mof_H 	H 	0.6322	0.8479	0.3466	0.121
Mof_C 	C 	0.66675	0.91525	0.33464	0.22
Mof_C 	C 	0.66534	0.9663	0.34752	-0.278
Mof_H 	H 	0.6882	0.9891	0.3342	0.138
Mof_C 	C 	0.63081	0.98309	0.37947	0.214
Mof_H 	H 	0.6299	0.0174	0.3871	-0.044
Mof_C 	C 	0.6973	0.85232	0.27686	0.224
Mof_C 	C 	0.73456	0.81591	0.2768	-0.264
Mof_H 	H 	0.764	0.8204	0.2945	0.128
Mof_C 	C 	0.9581	0.0138	0.1658	0.062
Mof_H 	H 	0.929	0.0232	0.1821	0.013
Mof_Pd	Pd	0.97141	0.0163	0.9983	0.057
Mof_N 	N 	0.9089	0.0234	0.0475	-0.122
Mof_C 	C 	0.9099	0.0337	0.0936	0.066
Mof_H 	H 	0.8842	0.051	0.1093	0.006
Mof_C 	C 	0.9576	0.0142	0.1171	-0.103
Mof_O 	O 	0.004	0.9716	0.0461	-0.278
Mof_C 	C 	0.8619	0.9978	0.0262	-0.073
Mof_H 	H 	0.8602	0.963	0.0373	0.052
Mof_H 	H 	0.8317	0.0153	0.0373	0.03
Mof_N 	N 	0.39782	0.20417	0.80354	-0.203
Mof_O 	O 	0.47917	0.42857	0.85058	-0.405
Mof_O 	O 	0.47817	0.42913	0.77141	-0.404
Mof_O 	O 	0.5139	0.06519	0.95075	-0.403
Mof_O 	O 	0.43739	0.02709	0.95167	-0.414
Mof_C 	C 	0.47197	0.40818	0.81095	0.37
Mof_C 	C 	0.45382	0.35409	0.8094	-0.156
Mof_C 	C 	0.44524	0.3313	0.7669	0.101
Mof_H 	H 	0.4512	0.3489	0.7391	0.011
Mof_C 	C 	0.42711	0.28053	0.76568	-0.206
Mof_H 	H 	0.4213	0.2647	0.737	0.106
Mof_C 	C 	0.41813	0.25496	0.80627	0.18
Mof_C 	C 	0.42679	0.27878	0.84894	-0.213
Mof_H 	H 	0.4206	0.2612	0.8767	0.113
Mof_C 	C 	0.4443	0.32765	0.85079	0.111
Mof_H 	H 	0.4498	0.3432	0.8797	0.011
Mof_C 	C 	0.468	0.05986	0.93811	0.384
Mof_C 	C 	0.44986	0.09673	0.90097	-0.165
Mof_C 	C 	0.40016	0.09671	0.8871	0.117
Mof_H 	H 	0.378	0.0727	0.8995	0.005
Mof_C 	C 	0.38212	0.13196	0.85477	-0.216
Mof_H 	H 	0.3479	0.1322	0.8466	0.11
Mof_C 	C 	0.41525	0.16675	0.83464	0.189
Mof_C 	C 	0.4663	0.16534	0.84752	-0.22
Mof_H 	H 	0.4891	0.1882	0.8342	0.113
Mof_C 	C 	0.48309	0.13081	0.87947	0.121
Mof_H 	H 	0.5174	0.1299	0.8871	0.005
Mof_C 	C 	0.35232	0.1973	0.77686	0.221
Mof_C 	C 	0.31591	0.23456	0.7768	-0.261
Mof_H 	H 	0.3204	0.264	0.7945	0.127
Mof_C 	C 	0.5138	0.4581	0.6658	0.057
Mof_H 	H 	0.5232	0.429	0.6821	0.018
Mof_Pd	Pd	0.5163	0.47141	0.4983	0.208
Mof_N 	N 	0.5234	0.4089	0.5475	-0.109
Mof_C 	C 	0.5337	0.4099	0.5936	0.08
Mof_H 	H 	0.551	0.3842	0.6093	0.006
Mof_C 	C 	0.5142	0.4576	0.6171	-0.126
Mof_O 	O 	0.4716	0.504	0.5461	-0.243
Mof_C 	C 	0.4978	0.3619	0.5262	-0.063
Mof_H 	H 	0.463	0.3602	0.5373	0.051
Mof_H 	H 	0.5153	0.3317	0.5373	0.048
Mof_N 	N 	0.60218	0.79583	0.80354	-0.202
Mof_O 	O 	0.52083	0.57143	0.85058	-0.404
Mof_O 	O 	0.52183	0.57087	0.77141	-0.404
Mof_O 	O 	0.4861	0.93481	0.95075	-0.39
Mof_O 	O 	0.56261	0.97291	0.95167	-0.393
Mof_C 	C 	0.52803	0.59182	0.81095	0.37
Mof_C 	C 	0.54618	0.64591	0.8094	-0.155
Mof_C 	C 	0.55476	0.6687	0.7669	0.102
Mof_H 	H 	0.5488	0.6511	0.7391	0.012
Mof_C 	C 	0.57289	0.71947	0.76568	-0.206
Mof_H 	H 	0.5787	0.7353	0.737	0.107
Mof_C 	C 	0.58187	0.74504	0.80627	0.181
Mof_C 	C 	0.57321	0.72122	0.84894	-0.213
Mof_H 	H 	0.5794	0.7388	0.8767	0.113
Mof_C 	C 	0.5557	0.67235	0.85079	0.112
Mof_H 	H 	0.5502	0.6568	0.8797	0.011
Mof_C 	C 	0.532	0.94014	0.93811	0.381
Mof_C 	C 	0.55014	0.90327	0.90097	-0.156
Mof_C 	C 	0.59984	0.90329	0.8871	0.113
Mof_H 	H 	0.622	0.9273	0.8995	0.013
Mof_C 	C 	0.61788	0.86804	0.85477	-0.21
Mof_H 	H 	0.6521	0.8678	0.8466	0.111
Mof_C 	C 	0.58475	0.83325	0.83464	0.188
Mof_C 	C 	0.5337	0.83466	0.84752	-0.215
Mof_H 	H 	0.5109	0.8118	0.8342	0.113
Mof_C 	C 	0.51691	0.86919	0.87947	0.118
Mof_H 	H 	0.4826	0.8701	0.8871	0.01
Mof_C 	C 	0.64768	0.8027	0.77686	0.224
Mof_C 	C 	0.68409	0.76544	0.7768	-0.263
Mof_H 	H 	0.6796	0.736	0.7945	0.129
Mof_C 	C 	0.4862	0.5419	0.6658	0.057
Mof_H 	H 	0.4768	0.571	0.6821	0.019
Mof_Pd	Pd	0.4837	0.52859	0.4983	0.208
Mof_N 	N 	0.4766	0.5911	0.5475	-0.109
Mof_C 	C 	0.4663	0.5901	0.5936	0.08
Mof_H 	H 	0.449	0.6158	0.6093	0.007
Mof_C 	C 	0.4858	0.5424	0.6171	-0.125
Mof_O 	O 	0.5284	0.496	0.5461	-0.243
Mof_C 	C 	0.5022	0.6381	0.5262	-0.063
Mof_H 	H 	0.537	0.6398	0.5373	0.052
Mof_H 	H 	0.4847	0.6683	0.5373	0.049
Mof_N 	N 	0.79583	0.39782	0.80354	-0.202
Mof_O 	O 	0.57143	0.47917	0.85058	-0.404
Mof_O 	O 	0.57087	0.47817	0.77141	-0.404
Mof_O 	O 	0.93481	0.5139	0.95075	-0.39
Mof_O 	O 	0.97291	0.43739	0.95167	-0.393
Mof_C 	C 	0.59182	0.47197	0.81095	0.37
Mof_C 	C 	0.64591	0.45382	0.8094	-0.156
Mof_C 	C 	0.6687	0.44524	0.7669	0.102
Mof_H 	H 	0.6511	0.4512	0.7391	0.011
Mof_C 	C 	0.71947	0.42711	0.76568	-0.206
Mof_H 	H 	0.7353	0.4213	0.737	0.107
Mof_C 	C 	0.74504	0.41813	0.80627	0.181
Mof_C 	C 	0.72122	0.42679	0.84894	-0.213
Mof_H 	H 	0.7388	0.4206	0.8767	0.113
Mof_C 	C 	0.67235	0.4443	0.85079	0.112
Mof_H 	H 	0.6568	0.4498	0.8797	0.011
Mof_C 	C 	0.94014	0.468	0.93811	0.381
Mof_C 	C 	0.90327	0.44986	0.90097	-0.156
Mof_C 	C 	0.90329	0.40016	0.8871	0.113
Mof_H 	H 	0.9273	0.378	0.8995	0.013
Mof_C 	C 	0.86804	0.38212	0.85477	-0.21
Mof_H 	H 	0.8678	0.3479	0.8466	0.111
Mof_C 	C 	0.83325	0.41525	0.83464	0.187
Mof_C 	C 	0.83466	0.4663	0.84752	-0.215
Mof_H 	H 	0.8118	0.4891	0.8342	0.113
Mof_C 	C 	0.86919	0.48309	0.87947	0.118
Mof_H 	H 	0.8701	0.5174	0.8871	0.011
Mof_C 	C 	0.8027	0.35232	0.77686	0.224
Mof_C 	C 	0.76544	0.31591	0.7768	-0.263
Mof_H 	H 	0.736	0.3204	0.7945	0.128
Mof_C 	C 	0.5419	0.5138	0.6658	0.057
Mof_H 	H 	0.571	0.5232	0.6821	0.018
Mof_Pd	Pd	0.52859	0.5163	0.4983	0.208
Mof_N 	N 	0.5911	0.5234	0.5475	-0.109
Mof_C 	C 	0.5901	0.5337	0.5936	0.08
Mof_H 	H 	0.6158	0.551	0.6093	0.007
Mof_C 	C 	0.5424	0.5142	0.6171	-0.125
Mof_O 	O 	0.496	0.4716	0.5461	-0.243
Mof_C 	C 	0.6381	0.4978	0.5262	-0.063
Mof_H 	H 	0.6398	0.463	0.5373	0.051
Mof_H 	H 	0.6683	0.5153	0.5373	0.049
Mof_N 	N 	0.20417	0.60218	0.80354	-0.203
Mof_O 	O 	0.42857	0.52083	0.85058	-0.404
Mof_O 	O 	0.42913	0.52183	0.77141	-0.404
Mof_O 	O 	0.06519	0.4861	0.95075	-0.403
Mof_O 	O 	0.02709	0.56261	0.95167	-0.414
Mof_C 	C 	0.40818	0.52803	0.81095	0.37
Mof_C 	C 	0.35409	0.54618	0.8094	-0.156
Mof_C 	C 	0.3313	0.55476	0.7669	0.102
Mof_H 	H 	0.3489	0.5488	0.7391	0.011
Mof_C 	C 	0.28053	0.57289	0.76568	-0.206
Mof_H 	H 	0.2647	0.5787	0.737	0.106
Mof_C 	C 	0.25496	0.58187	0.80627	0.181
Mof_C 	C 	0.27878	0.57321	0.84894	-0.213
Mof_H 	H 	0.2612	0.5794	0.8767	0.113
Mof_C 	C 	0.32765	0.5557	0.85079	0.112
Mof_H 	H 	0.3432	0.5502	0.8797	0.011
Mof_C 	C 	0.05986	0.532	0.93811	0.384
Mof_C 	C 	0.09673	0.55014	0.90097	-0.165
Mof_C 	C 	0.09671	0.59984	0.8871	0.117
Mof_H 	H 	0.0727	0.622	0.8995	0.006
Mof_C 	C 	0.13196	0.61788	0.85477	-0.216
Mof_H 	H 	0.1322	0.6521	0.8466	0.11
Mof_C 	C 	0.16675	0.58475	0.83464	0.189
Mof_C 	C 	0.16534	0.5337	0.84752	-0.22
Mof_H 	H 	0.1882	0.5109	0.8342	0.113
Mof_C 	C 	0.13081	0.51691	0.87947	0.122
Mof_H 	H 	0.1299	0.4826	0.8871	0.005
Mof_C 	C 	0.1973	0.64768	0.77686	0.222
Mof_C 	C 	0.23456	0.68409	0.7768	-0.261
Mof_H 	H 	0.264	0.6796	0.7945	0.128
Mof_C 	C 	0.4581	0.4862	0.6658	0.058
Mof_H 	H 	0.429	0.4768	0.6821	0.018
Mof_Pd	Pd	0.47141	0.4837	0.4983	0.208
Mof_N 	N 	0.4089	0.4766	0.5475	-0.109
Mof_C 	C 	0.4099	0.4663	0.5936	0.08
Mof_H 	H 	0.3842	0.449	0.6093	0.006
Mof_C 	C 	0.4576	0.4858	0.6171	-0.126
Mof_O 	O 	0.504	0.5284	0.5461	-0.243
Mof_C 	C 	0.3619	0.5022	0.5262	-0.063
Mof_H 	H 	0.3602	0.537	0.5373	0.051
Mof_H 	H 	0.3317	0.4847	0.5373	0.048
Mof_N 	N 	0.10218	0.70417	0.69646	-0.198
Mof_O 	O 	0.02083	0.92857	0.64942	-0.403
Mof_O 	O 	0.02183	0.92913	0.72859	-0.401
Mof_O 	O 	0.9861	0.56519	0.54925	-0.384
Mof_O 	O 	0.06261	0.52709	0.54833	-0.411
Mof_C 	C 	0.02803	0.90818	0.68905	0.369
Mof_C 	C 	0.04618	0.85409	0.6906	-0.157
Mof_C 	C 	0.05476	0.8313	0.7331	0.101
Mof_H 	H 	0.0488	0.8489	0.7609	0.009
Mof_C 	C 	0.07289	0.78053	0.73432	-0.206
Mof_H 	H 	0.0787	0.7647	0.763	0.106
Mof_C 	C 	0.08187	0.75496	0.69373	0.179
Mof_C 	C 	0.07321	0.77878	0.65106	-0.213
Mof_H 	H 	0.0794	0.7612	0.6233	0.109
Mof_C 	C 	0.0557	0.82765	0.64921	0.11
Mof_H 	H 	0.0502	0.8432	0.6203	0.007
Mof_C 	C 	0.032	0.55986	0.56189	0.34
Mof_C 	C 	0.05014	0.59673	0.59903	-0.12
Mof_C 	C 	0.09984	0.59671	0.6129	0.078
Mof_H 	H 	0.122	0.5727	0.6005	0.017
Mof_C 	C 	0.11788	0.63196	0.64523	-0.185
Mof_H 	H 	0.1521	0.6322	0.6534	0.098
Mof_C 	C 	0.08475	0.66675	0.66536	0.158
Mof_C 	C 	0.0337	0.66534	0.65248	-0.165
Mof_H 	H 	0.0109	0.6882	0.6658	0.088
Mof_C 	C 	0.01691	0.63081	0.62053	0.031
Mof_H 	H 	0.9826	0.6299	0.6129	0.052
Mof_C 	C 	0.14768	0.6973	0.72314	0.221
Mof_C 	C 	0.18409	0.73456	0.7232	-0.261
Mof_H 	H 	0.1796	0.764	0.7055	0.128
Mof_C 	C 	0.9862	0.9581	0.8342	0.074
Mof_H 	H 	0.9768	0.929	0.8179	0.022
Mof_Pd	Pd	0.9837	0.97141	0.0017	0.344
Mof_N 	N 	0.9766	0.9089	0.9525	-0.092
Mof_C 	C 	0.9663	0.9099	0.9064	0.065
Mof_H 	H 	0.949	0.8842	0.8907	0.018
Mof_C 	C 	0.9858	0.9576	0.8829	-0.068
Mof_O 	O 	0.0284	0.004	0.9539	-0.263
Mof_C 	C 	0.0022	0.8619	0.9738	-0.055
Mof_H 	H 	0.037	0.8602	0.9627	0.051
Mof_H 	H 	0.9847	0.8317	0.9627	0.069
Mof_N 	N 	0.89782	0.29583	0.69646	-0.208
Mof_O 	O 	0.97917	0.07143	0.64942	-0.401
Mof_O 	O 	0.97817	0.07087	0.72859	-0.395
Mof_O 	O 	0.0139	0.43481	0.54925	-0.44
Mof_O 	O 	0.93739	0.47291	0.54833	-0.427
Mof_C 	C 	0.97197	0.09182	0.68905	0.368
Mof_C 	C 	0.95382	0.14591	0.6906	-0.155
Mof_C 	C 	0.94524	0.1687	0.7331	0.102
Mof_H 	H 	0.9512	0.1511	0.7609	0.015
Mof_C 	C 	0.92711	0.21947	0.73432	-0.205
Mof_H 	H 	0.9213	0.2353	0.763	0.109
Mof_C 	C 	0.91813	0.24504	0.69373	0.182
Mof_C 	C 	0.92679	0.22122	0.65106	-0.214
Mof_H 	H 	0.9206	0.2388	0.6233	0.11
Mof_C 	C 	0.9443	0.17235	0.64921	0.111
Mof_H 	H 	0.9498	0.1568	0.6203	0.008
Mof_C 	C 	0.968	0.44014	0.56189	0.432
Mof_C 	C 	0.94986	0.40327	0.59903	-0.216
Mof_C 	C 	0.90016	0.40329	0.6129	0.159
Mof_H 	H 	0.878	0.4273	0.6005	-0.009
Mof_C 	C 	0.88212	0.36804	0.64523	-0.251
Mof_H 	H 	0.8479	0.3678	0.6534	0.121
Mof_C 	C 	0.91525	0.33325	0.66536	0.221
Mof_C 	C 	0.9663	0.33466	0.65248	-0.279
Mof_H 	H 	0.9891	0.3118	0.6658	0.139
Mof_C 	C 	0.98309	0.36919	0.62053	0.217
Mof_H 	H 	0.0174	0.3701	0.6129	-0.046
Mof_C 	C 	0.85232	0.3027	0.72314	0.224
Mof_C 	C 	0.81591	0.26544	0.7232	-0.264
Mof_H 	H 	0.8204	0.236	0.7055	0.126
Mof_C 	C 	0.0138	0.0419	0.8342	0.029
Mof_H 	H 	0.0232	0.071	0.8179	0.021
Mof_Pd	Pd	0.0163	0.02859	0.0017	0.274
Mof_N 	N 	0.0234	0.0911	0.9525	-0.119
Mof_C 	C 	0.0337	0.0901	0.9064	0.066
Mof_H 	H 	0.051	0.1158	0.8907	0.009
Mof_C 	C 	0.0142	0.0424	0.8829	-0.11
Mof_O 	O 	0.9716	0.996	0.9539	-0.183
Mof_C 	C 	0.9978	0.1381	0.9738	0.036
Mof_H 	H 	0.963	0.1398	0.9627	0.036
Mof_H 	H 	0.0153	0.1683	0.9627	0.013
Mof_N 	N 	0.70417	0.89782	0.69646	-0.208
Mof_O 	O 	0.92857	0.97917	0.64942	-0.388
Mof_O 	O 	0.92913	0.97817	0.72859	-0.384
Mof_O 	O 	0.56519	0.0139	0.54925	-0.439
Mof_O 	O 	0.52709	0.93739	0.54833	-0.427
Mof_C 	C 	0.90818	0.97197	0.68905	0.367
Mof_C 	C 	0.85409	0.95382	0.6906	-0.15
Mof_C 	C 	0.8313	0.94524	0.7331	0.101
Mof_H 	H 	0.8489	0.9512	0.7609	0.017
Mof_C 	C 	0.78053	0.92711	0.73432	-0.203
Mof_H 	H 	0.7647	0.9213	0.763	0.109
Mof_C 	C 	0.75496	0.91813	0.69373	0.181
Mof_C 	C 	0.77878	0.92679	0.65106	-0.211
Mof_H 	H 	0.7612	0.9206	0.6233	0.111
Mof_C 	C 	0.82765	0.9443	0.64921	0.11
Mof_H 	H 	0.8432	0.9498	0.6203	0.012
Mof_C 	C 	0.55986	0.968	0.56189	0.431
Mof_C 	C 	0.59673	0.94986	0.59903	-0.215
Mof_C 	C 	0.59671	0.90016	0.6129	0.158
Mof_H 	H 	0.5727	0.878	0.6005	-0.008
Mof_C 	C 	0.63196	0.88212	0.64523	-0.25
Mof_H 	H 	0.6322	0.8479	0.6534	0.121
Mof_C 	C 	0.66675	0.91525	0.66536	0.22
Mof_C 	C 	0.66534	0.9663	0.65248	-0.278
Mof_H 	H 	0.6882	0.9891	0.6658	0.139
Mof_C 	C 	0.63081	0.98309	0.62053	0.214
Mof_H 	H 	0.6299	0.0174	0.6129	-0.044
Mof_C 	C 	0.6973	0.85232	0.72314	0.225
Mof_C 	C 	0.73456	0.81591	0.7232	-0.264
Mof_H 	H 	0.764	0.8204	0.7055	0.129
Mof_C 	C 	0.9581	0.0138	0.8342	0.058
Mof_H 	H 	0.929	0.0232	0.8179	0.015
Mof_Pd	Pd	0.97141	0.0163	0.0017	0.289
Mof_N 	N 	0.9089	0.0234	0.9525	-0.12
Mof_C 	C 	0.9099	0.0337	0.9064	0.065
Mof_H 	H 	0.8842	0.051	0.8907	0.011
Mof_C 	C 	0.9576	0.0142	0.8829	-0.095
Mof_O 	O 	0.004	0.9716	0.9539	-0.255
Mof_C 	C 	0.8619	0.9978	0.9738	0.031
Mof_H 	H 	0.8602	0.963	0.9627	0.036
Mof_H 	H 	0.8317	0.0153	0.9627	0.016
Mof_N 	N 	0.29583	0.10218	0.69646	-0.198
Mof_O 	O 	0.07143	0.02083	0.64942	-0.419
Mof_O 	O 	0.07087	0.02183	0.72859	-0.414
Mof_O 	O 	0.43481	0.9861	0.54925	-0.384
Mof_O 	O 	0.47291	0.06261	0.54833	-0.411
Mof_C 	C 	0.09182	0.02803	0.68905	0.37
Mof_C 	C 	0.14591	0.04618	0.6906	-0.163
Mof_C 	C 	0.1687	0.05476	0.7331	0.103
Mof_H 	H 	0.1511	0.0488	0.7609	0.007
Mof_C 	C 	0.21947	0.07289	0.73432	-0.209
Mof_H 	H 	0.2353	0.0787	0.763	0.106
Mof_C 	C 	0.24504	0.08187	0.69373	0.18
Mof_C 	C 	0.22122	0.07321	0.65106	-0.216
Mof_H 	H 	0.2388	0.0794	0.6233	0.108
Mof_C 	C 	0.17235	0.0557	0.64921	0.112
Mof_H 	H 	0.1568	0.0502	0.6203	0.002
Mof_C 	C 	0.44014	0.032	0.56189	0.339
Mof_C 	C 	0.40327	0.05014	0.59903	-0.119
Mof_C 	C 	0.40329	0.09984	0.6129	0.077
Mof_H 	H 	0.4273	0.122	0.6005	0.018
Mof_C 	C 	0.36804	0.11788	0.64523	-0.184
Mof_H 	H 	0.3678	0.1521	0.6534	0.098
Mof_C 	C 	0.33325	0.08475	0.66536	0.157
Mof_C 	C 	0.33466	0.0337	0.65248	-0.164
Mof_H 	H 	0.3118	0.0109	0.6658	0.087
Mof_C 	C 	0.36919	0.01691	0.62053	0.028
Mof_H 	H 	0.3701	0.9826	0.6129	0.053
Mof_C 	C 	0.3027	0.14768	0.72314	0.22
Mof_C 	C 	0.26544	0.18409	0.7232	-0.261
Mof_H 	H 	0.236	0.1796	0.7055	0.125
Mof_C 	C 	0.0419	0.9862	0.8342	0.052
Mof_H 	H 	0.071	0.9768	0.8179	0.026
Mof_Pd	Pd	0.02859	0.9837	0.0017	0.365
Mof_N 	N 	0.0911	0.9766	0.9525	-0.091
Mof_C 	C 	0.0901	0.9663	0.9064	0.066
Mof_H 	H 	0.1158	0.949	0.8907	0.015
Mof_C 	C 	0.0424	0.9858	0.8829	-0.078
Mof_O 	O 	0.996	0.0284	0.9539	-0.168
Mof_C 	C 	0.1381	0.0022	0.9738	-0.058
Mof_H 	H 	0.1398	0.037	0.9627	0.053
Mof_H 	H 	0.1683	0.9847	0.9627	0.07
Mof_Cu	Cu	0.5	0.5	0.14295	0.9
Mof_Cu	Cu	0.5	0.5	0.23582	0.917
Mof_N 	N 	0.5	0.5	0.31006	-0.214
Mof_C 	C 	0.5	0.5	0.4088	0.498
Mof_Cu	Cu	1.44969e-33	0	0.35705	0.882
Mof_Cu	Cu	-1.49026e-33	0	0.26418	0.899
Mof_N 	N 	-1.79169e-33	0	0.18994	-0.239
Mof_C 	C 	3.70289e-34	0	0.0912	0.398
Mof_Cu	Cu	0.5	0.5	0.85705	0.904
Mof_Cu	Cu	0.5	0.5	0.76418	0.917
Mof_N 	N 	0.5	0.5	0.68994	-0.214
Mof_C 	C 	0.5	0.5	0.5912	0.498
Mof_Cu	Cu	-2.51527e-33	-5.12577e-33	0.64295	0.882
Mof_Cu	Cu	2.98757e-33	0	0.73582	0.899
Mof_N 	N 	3.28899e-33	0	0.81006	-0.236
Mof_C 	C 	-6.56164e-33	0	0.9088	0.367
Mof_Cu	Cu	0.45521	0.97736	-0	0.899
Mof_Cu	Cu	0.54479	0.02264	-0	0.879
Mof_Cu	Cu	0.02264	0.45521	-0	0.879
Mof_Cu	Cu	0.97736	0.54479	-0	0.899
Mof_Cu	Cu	0.04479	0.47736	0.5	0.9
Mof_Cu	Cu	0.95521	0.52264	0.5	0.907
Mof_Cu	Cu	0.47736	0.95521	0.5	0.906
Mof_Cu	Cu	0.52264	0.04479	0.5	0.9
Mof_C 	C 	0.7279	0.7721	0.25	0.167
Mof_H 	H 	0.7529	0.7471	0.25	-0.027
Mof_C 	C 	0.65383	0.84617	0.25	-0.289
Mof_H 	H 	0.6288	0.8712	0.25	0.14
Mof_C 	C 	0.2721	0.2279	0.25	0.163
Mof_H 	H 	0.2471	0.2529	0.25	-0.03
Mof_C 	C 	0.34617	0.15383	0.25	-0.286
Mof_H 	H 	0.3712	0.1288	0.25	0.136
Mof_C 	C 	0.2279	0.7279	0.25	0.164
Mof_H 	H 	0.2529	0.7529	0.25	-0.027
Mof_C 	C 	0.15383	0.65383	0.25	-0.286
Mof_H 	H 	0.1288	0.6288	0.25	0.136
Mof_C 	C 	0.7721	0.2721	0.25	0.166
Mof_H 	H 	0.7471	0.2471	0.25	-0.03
Mof_C 	C 	0.84617	0.34617	0.25	-0.289
Mof_H 	H 	0.8712	0.3712	0.25	0.14
Mof_C 	C 	0.2721	0.2279	0.75	0.165
Mof_H 	H 	0.2471	0.2529	0.75	-0.028
Mof_C 	C 	0.34617	0.15383	0.75	-0.286
Mof_H 	H 	0.3712	0.1288	0.75	0.136
Mof_C 	C 	0.7279	0.7721	0.75	0.168
Mof_H 	H 	0.7529	0.7471	0.75	-0.026
Mof_C 	C 	0.65383	0.84617	0.75	-0.29
Mof_H 	H 	0.6288	0.8712	0.75	0.14
Mof_C 	C 	0.7721	0.2721	0.75	0.168
Mof_H 	H 	0.7471	0.2471	0.75	-0.029
Mof_C 	C 	0.84617	0.34617	0.75	-0.289
Mof_H 	H 	0.8712	0.3712	0.75	0.14
Mof_C 	C 	0.2279	0.7279	0.75	0.166
Mof_H 	H 	0.2529	0.7529	0.75	-0.025
Mof_C 	C 	0.15383	0.65383	0.75	-0.286
Mof_H 	H 	0.1288	0.6288	0.75	0.136
_end
