data_functionalizedCrystal
_audit_creation_method	'EQeq! by Chris Wilmer'
_symmetry_space_group_name_H-M	'P1'
_symmetry_Int_Tables_number	1
_symmetry_cell_setting	triclinic
loop_
_symmetry_equiv_pos_as_xyz
  x,y,z
_cell_length_a	50.817
_cell_length_b	50.817
_cell_length_c	50.817
_cell_angle_alpha	90
_cell_angle_beta	90
_cell_angle_gamma	90
loop_
_atom_site_label
_atom_site_type_symbol
_atom_site_fract_x
_atom_site_fract_y
_atom_site_fract_z
_atom_site_charge
Mof_S 	S 	0.70816	0.87629	0.08698	0.1
Mof_O 	O 	0.83434	0.87509	0.03738	-0.375
Mof_O 	O 	0.82019	0.88822	0.07721	-0.385
Mof_O 	O 	0.6612	0.87558	0.12008	-0.373
Mof_C 	C 	0.81735	0.88058	0.05402	0.384
Mof_C 	C 	0.7889	0.87794	0.04544	-0.05
Mof_C 	C 	0.74933	0.87562	0.02015	0.003
Mof_C 	C 	0.74223	0.87586	0.04682	-0.001
Mof_C 	C 	0.71545	0.87559	0.05395	-0.007
Mof_C 	C 	0.76866	0.8793	0.05944	-0.077
Mof_H 	H 	0.7701	0.8808	0.0778	0.005
Mof_S 	S 	0.78204	0.87666	0.01052	0.084
Mof_C 	C 	0.77823	0.87589	0.02214	-0.068
Mof_H 	H 	0.7887	0.8745	0.007	0.01
Mof_S 	S 	0.76461	0.87696	0.07156	0.101
Mof_C 	C 	0.69835	0.87633	0.07717	-0.046
Mof_H 	H 	0.7062	0.8757	0.0939	-0.009
Mof_S 	S 	0.70816	0.37629	0.58698	0.1
Mof_O 	O 	0.83434	0.37509	0.53738	-0.375
Mof_O 	O 	0.82019	0.38822	0.57721	-0.385
Mof_O 	O 	0.6612	0.37558	0.62008	-0.373
Mof_C 	C 	0.81735	0.38058	0.55402	0.384
Mof_C 	C 	0.7889	0.37794	0.54544	-0.05
Mof_C 	C 	0.74933	0.37562	0.52015	0.003
Mof_C 	C 	0.74223	0.37586	0.54682	-0.001
Mof_C 	C 	0.71545	0.37559	0.55395	-0.007
Mof_C 	C 	0.76866	0.3793	0.55944	-0.077
Mof_H 	H 	0.7701	0.3808	0.5778	0.005
Mof_S 	S 	0.78204	0.37666	0.51052	0.084
Mof_C 	C 	0.77823	0.37589	0.52214	-0.068
Mof_H 	H 	0.7887	0.3745	0.507	0.01
Mof_S 	S 	0.76461	0.37696	0.57156	0.101
Mof_C 	C 	0.69835	0.37633	0.57717	-0.046
Mof_H 	H 	0.7062	0.3757	0.5939	-0.009
Mof_S 	S 	0.20816	0.87629	0.58698	0.1
Mof_O 	O 	0.33434	0.87509	0.53738	-0.375
Mof_O 	O 	0.32019	0.88822	0.57721	-0.385
Mof_O 	O 	0.1612	0.87558	0.62008	-0.373
Mof_C 	C 	0.31735	0.88058	0.55402	0.384
Mof_C 	C 	0.2889	0.87794	0.54544	-0.05
Mof_C 	C 	0.24933	0.87562	0.52015	0.003
Mof_C 	C 	0.24223	0.87586	0.54682	-0.001
Mof_C 	C 	0.21545	0.87559	0.55395	-0.007
Mof_C 	C 	0.26866	0.8793	0.55944	-0.077
Mof_H 	H 	0.2701	0.8808	0.5778	0.005
Mof_S 	S 	0.28204	0.87666	0.51052	0.084
Mof_C 	C 	0.27823	0.87589	0.52214	-0.068
Mof_H 	H 	0.2887	0.8745	0.507	0.01
Mof_S 	S 	0.26461	0.87696	0.57156	0.101
Mof_C 	C 	0.19835	0.87633	0.57717	-0.046
Mof_H 	H 	0.2062	0.8757	0.5939	-0.009
Mof_S 	S 	0.20816	0.37629	0.08698	0.1
Mof_O 	O 	0.33434	0.37509	0.03738	-0.375
Mof_O 	O 	0.32019	0.38822	0.07721	-0.385
Mof_O 	O 	0.1612	0.37558	0.12008	-0.373
Mof_C 	C 	0.31735	0.38058	0.05402	0.384
Mof_C 	C 	0.2889	0.37794	0.04544	-0.05
Mof_C 	C 	0.24933	0.37562	0.02015	0.003
Mof_C 	C 	0.24223	0.37586	0.04682	-0.001
Mof_C 	C 	0.21545	0.37559	0.05395	-0.007
Mof_C 	C 	0.26866	0.3793	0.05944	-0.077
Mof_H 	H 	0.2701	0.3808	0.0778	0.005
Mof_S 	S 	0.28204	0.37666	0.01052	0.084
Mof_C 	C 	0.27823	0.37589	0.02214	-0.068
Mof_H 	H 	0.2887	0.3745	0.007	0.01
Mof_S 	S 	0.26461	0.37696	0.07156	0.101
Mof_C 	C 	0.19835	0.37633	0.07717	-0.046
Mof_H 	H 	0.2062	0.3757	0.0939	-0.009
Mof_S 	S 	0.04184	0.37371	0.58698	0.1
Mof_O 	O 	0.91566	0.37491	0.53738	-0.375
Mof_O 	O 	0.92981	0.36178	0.57721	-0.385
Mof_O 	O 	0.0888	0.37442	0.62008	-0.373
Mof_C 	C 	0.93265	0.36942	0.55402	0.384
Mof_C 	C 	0.9611	0.37206	0.54544	-0.05
Mof_C 	C 	0.00067	0.37438	0.52015	0.003
Mof_C 	C 	0.00777	0.37414	0.54682	-0.001
Mof_C 	C 	0.03455	0.37441	0.55395	-0.007
Mof_C 	C 	0.98134	0.3707	0.55944	-0.077
Mof_H 	H 	0.9799	0.3692	0.5778	0.005
Mof_S 	S 	0.96796	0.37334	0.51052	0.084
Mof_C 	C 	0.97177	0.37411	0.52214	-0.068
Mof_H 	H 	0.9613	0.3755	0.507	0.01
Mof_S 	S 	0.98539	0.37304	0.57156	0.101
Mof_C 	C 	0.05165	0.37367	0.57717	-0.046
Mof_H 	H 	0.0438	0.3743	0.5939	-0.009
Mof_S 	S 	0.04184	0.87371	0.08698	0.1
Mof_O 	O 	0.91566	0.87491	0.03738	-0.375
Mof_O 	O 	0.92981	0.86178	0.07721	-0.385
Mof_O 	O 	0.0888	0.87442	0.12008	-0.373
Mof_C 	C 	0.93265	0.86942	0.05402	0.384
Mof_C 	C 	0.9611	0.87206	0.04544	-0.05
Mof_C 	C 	0.00067	0.87438	0.02015	0.003
Mof_C 	C 	0.00777	0.87414	0.04682	-0.001
Mof_C 	C 	0.03455	0.87441	0.05395	-0.007
Mof_C 	C 	0.98134	0.8707	0.05944	-0.077
Mof_H 	H 	0.9799	0.8692	0.0778	0.005
Mof_S 	S 	0.96796	0.87334	0.01052	0.083
Mof_C 	C 	0.97177	0.87411	0.02214	-0.069
Mof_H 	H 	0.9613	0.8755	0.007	0.009
Mof_S 	S 	0.98539	0.87304	0.07156	0.1
Mof_C 	C 	0.05165	0.87367	0.07717	-0.047
Mof_H 	H 	0.0438	0.8743	0.0939	-0.01
Mof_S 	S 	0.54184	0.37371	0.08698	0.099
Mof_O 	O 	0.41566	0.37491	0.03738	-0.376
Mof_O 	O 	0.42981	0.36178	0.07721	-0.386
Mof_O 	O 	0.5888	0.37442	0.12008	-0.374
Mof_C 	C 	0.43265	0.36942	0.05402	0.383
Mof_C 	C 	0.4611	0.37206	0.04544	-0.051
Mof_C 	C 	0.50067	0.37438	0.02015	0.002
Mof_C 	C 	0.50777	0.37414	0.04682	-0.002
Mof_C 	C 	0.53455	0.37441	0.05395	-0.008
Mof_C 	C 	0.48134	0.3707	0.05944	-0.078
Mof_H 	H 	0.4799	0.3692	0.0778	0.004
Mof_S 	S 	0.46796	0.37334	0.01052	0.083
Mof_C 	C 	0.47177	0.37411	0.02214	-0.069
Mof_H 	H 	0.4613	0.3755	0.007	0.009
Mof_S 	S 	0.48539	0.37304	0.07156	0.1
Mof_C 	C 	0.55165	0.37367	0.07717	-0.047
Mof_H 	H 	0.5438	0.3743	0.0939	-0.01
Mof_S 	S 	0.54184	0.87371	0.58698	0.099
Mof_O 	O 	0.41566	0.87491	0.53738	-0.376
Mof_O 	O 	0.42981	0.86178	0.57721	-0.386
Mof_O 	O 	0.5888	0.87442	0.62008	-0.374
Mof_C 	C 	0.43265	0.86942	0.55402	0.383
Mof_C 	C 	0.4611	0.87206	0.54544	-0.051
Mof_C 	C 	0.50067	0.87438	0.52015	0.002
Mof_C 	C 	0.50777	0.87414	0.54682	-0.002
Mof_C 	C 	0.53455	0.87441	0.55395	-0.008
Mof_C 	C 	0.48134	0.8707	0.55944	-0.078
Mof_H 	H 	0.4799	0.8692	0.5778	0.004
Mof_S 	S 	0.46796	0.87334	0.51052	0.083
Mof_C 	C 	0.47177	0.87411	0.52214	-0.069
Mof_H 	H 	0.4613	0.8755	0.507	0.009
Mof_S 	S 	0.48539	0.87304	0.57156	0.1
Mof_C 	C 	0.55165	0.87367	0.57717	-0.047
Mof_H 	H 	0.5438	0.8743	0.5939	-0.01
Mof_S 	S 	0.54184	0.37629	0.66302	0.099
Mof_O 	O 	0.41566	0.37509	0.71262	-0.376
Mof_O 	O 	0.42981	0.38822	0.67279	-0.386
Mof_O 	O 	0.5888	0.37558	0.62992	-0.374
Mof_C 	C 	0.43265	0.38058	0.69598	0.383
Mof_C 	C 	0.4611	0.37794	0.70456	-0.051
Mof_C 	C 	0.50067	0.37562	0.72985	0.002
Mof_C 	C 	0.50777	0.37586	0.70318	-0.002
Mof_C 	C 	0.53455	0.37559	0.69605	-0.008
Mof_C 	C 	0.48134	0.3793	0.69056	-0.078
Mof_H 	H 	0.4799	0.3808	0.6722	0.004
Mof_S 	S 	0.46796	0.37666	0.73948	0.083
Mof_C 	C 	0.47177	0.37589	0.72786	-0.069
Mof_H 	H 	0.4613	0.3745	0.743	0.009
Mof_S 	S 	0.48539	0.37696	0.67844	0.1
Mof_C 	C 	0.55165	0.37633	0.67283	-0.047
Mof_H 	H 	0.5438	0.3757	0.6561	-0.01
Mof_S 	S 	0.54184	0.87629	0.16302	0.099
Mof_O 	O 	0.41566	0.87509	0.21262	-0.376
Mof_O 	O 	0.42981	0.88822	0.17279	-0.386
Mof_O 	O 	0.5888	0.87558	0.12992	-0.374
Mof_C 	C 	0.43265	0.88058	0.19598	0.383
Mof_C 	C 	0.4611	0.87794	0.20456	-0.051
Mof_C 	C 	0.50067	0.87562	0.22985	0.002
Mof_C 	C 	0.50777	0.87586	0.20318	-0.002
Mof_C 	C 	0.53455	0.87559	0.19605	-0.008
Mof_C 	C 	0.48134	0.8793	0.19056	-0.078
Mof_H 	H 	0.4799	0.8808	0.1722	0.004
Mof_S 	S 	0.46796	0.87666	0.23948	0.083
Mof_C 	C 	0.47177	0.87589	0.22786	-0.069
Mof_H 	H 	0.4613	0.8745	0.243	0.009
Mof_S 	S 	0.48539	0.87696	0.17844	0.1
Mof_C 	C 	0.55165	0.87633	0.17283	-0.047
Mof_H 	H 	0.5438	0.8757	0.1561	-0.01
Mof_S 	S 	0.04184	0.37629	0.16302	0.099
Mof_O 	O 	0.91566	0.37509	0.21262	-0.376
Mof_O 	O 	0.92981	0.38822	0.17279	-0.386
Mof_O 	O 	0.0888	0.37558	0.12992	-0.374
Mof_C 	C 	0.93265	0.38058	0.19598	0.383
Mof_C 	C 	0.9611	0.37794	0.20456	-0.051
Mof_C 	C 	0.00067	0.37562	0.22985	0.002
Mof_C 	C 	0.00777	0.37586	0.20318	-0.002
Mof_C 	C 	0.03455	0.37559	0.19605	-0.008
Mof_C 	C 	0.98134	0.3793	0.19056	-0.078
Mof_H 	H 	0.9799	0.3808	0.1722	0.004
Mof_S 	S 	0.96796	0.37666	0.23948	0.083
Mof_C 	C 	0.97177	0.37589	0.22786	-0.069
Mof_H 	H 	0.9613	0.3745	0.243	0.009
Mof_S 	S 	0.98539	0.37696	0.17844	0.1
Mof_C 	C 	0.05165	0.37633	0.17283	-0.047
Mof_H 	H 	0.0438	0.3757	0.1561	-0.01
Mof_S 	S 	0.04184	0.87629	0.66302	0.099
Mof_O 	O 	0.91566	0.87509	0.71262	-0.376
Mof_O 	O 	0.92981	0.88822	0.67279	-0.386
Mof_O 	O 	0.0888	0.87558	0.62992	-0.374
Mof_C 	C 	0.93265	0.88058	0.69598	0.383
Mof_C 	C 	0.9611	0.87794	0.70456	-0.051
Mof_C 	C 	0.00067	0.87562	0.72985	0.002
Mof_C 	C 	0.00777	0.87586	0.70318	-0.002
Mof_C 	C 	0.03455	0.87559	0.69605	-0.008
Mof_C 	C 	0.98134	0.8793	0.69056	-0.078
Mof_H 	H 	0.9799	0.8808	0.6722	0.004
Mof_S 	S 	0.96796	0.87666	0.73948	0.083
Mof_C 	C 	0.97177	0.87589	0.72786	-0.069
Mof_H 	H 	0.9613	0.8745	0.743	0.009
Mof_S 	S 	0.98539	0.87696	0.67844	0.1
Mof_C 	C 	0.05165	0.87633	0.67283	-0.047
Mof_H 	H 	0.0438	0.8757	0.6561	-0.01
Mof_S 	S 	0.20816	0.87371	0.16302	0.099
Mof_O 	O 	0.33434	0.87491	0.21262	-0.376
Mof_O 	O 	0.32019	0.86178	0.17279	-0.386
Mof_O 	O 	0.1612	0.87442	0.12992	-0.374
Mof_C 	C 	0.31735	0.86942	0.19598	0.383
Mof_C 	C 	0.2889	0.87206	0.20456	-0.051
Mof_C 	C 	0.24933	0.87438	0.22985	0.002
Mof_C 	C 	0.24223	0.87414	0.20318	-0.002
Mof_C 	C 	0.21545	0.87441	0.19605	-0.008
Mof_C 	C 	0.26866	0.8707	0.19056	-0.078
Mof_H 	H 	0.2701	0.8692	0.1722	0.004
Mof_S 	S 	0.28204	0.87334	0.23948	0.083
Mof_C 	C 	0.27823	0.87411	0.22786	-0.069
Mof_H 	H 	0.2887	0.8755	0.243	0.009
Mof_S 	S 	0.26461	0.87304	0.17844	0.1
Mof_C 	C 	0.19835	0.87367	0.17283	-0.047
Mof_H 	H 	0.2062	0.8743	0.1561	-0.01
Mof_S 	S 	0.20816	0.37371	0.66302	0.099
Mof_O 	O 	0.33434	0.37491	0.71262	-0.376
Mof_O 	O 	0.32019	0.36178	0.67279	-0.386
Mof_O 	O 	0.1612	0.37442	0.62992	-0.374
Mof_C 	C 	0.31735	0.36942	0.69598	0.383
Mof_C 	C 	0.2889	0.37206	0.70456	-0.051
Mof_C 	C 	0.24933	0.37438	0.72985	0.002
Mof_C 	C 	0.24223	0.37414	0.70318	-0.002
Mof_C 	C 	0.21545	0.37441	0.69605	-0.008
Mof_C 	C 	0.26866	0.3707	0.69056	-0.078
Mof_H 	H 	0.2701	0.3692	0.6722	0.004
Mof_S 	S 	0.28204	0.37334	0.73948	0.083
Mof_C 	C 	0.27823	0.37411	0.72786	-0.069
Mof_H 	H 	0.2887	0.3755	0.743	0.009
Mof_S 	S 	0.26461	0.37304	0.67844	0.1
Mof_C 	C 	0.19835	0.37367	0.67283	-0.047
Mof_H 	H 	0.2062	0.3743	0.6561	-0.01
Mof_S 	S 	0.70816	0.87371	0.66302	0.099
Mof_O 	O 	0.83434	0.87491	0.71262	-0.376
Mof_O 	O 	0.82019	0.86178	0.67279	-0.386
Mof_O 	O 	0.6612	0.87442	0.62992	-0.374
Mof_C 	C 	0.81735	0.86942	0.69598	0.383
Mof_C 	C 	0.7889	0.87206	0.70456	-0.051
Mof_C 	C 	0.74933	0.87438	0.72985	0.002
Mof_C 	C 	0.74223	0.87414	0.70318	-0.002
Mof_C 	C 	0.71545	0.87441	0.69605	-0.008
Mof_C 	C 	0.76866	0.8707	0.69056	-0.078
Mof_H 	H 	0.7701	0.8692	0.6722	0.004
Mof_S 	S 	0.78204	0.87334	0.73948	0.083
Mof_C 	C 	0.77823	0.87411	0.72786	-0.069
Mof_H 	H 	0.7887	0.8755	0.743	0.009
Mof_S 	S 	0.76461	0.87304	0.67844	0.1
Mof_C 	C 	0.69835	0.87367	0.67283	-0.047
Mof_H 	H 	0.7062	0.8743	0.6561	-0.01
Mof_S 	S 	0.70816	0.37371	0.16302	0.099
Mof_O 	O 	0.83434	0.37491	0.21262	-0.376
Mof_O 	O 	0.82019	0.36178	0.17279	-0.386
Mof_O 	O 	0.6612	0.37442	0.12992	-0.374
Mof_C 	C 	0.81735	0.36942	0.19598	0.383
Mof_C 	C 	0.7889	0.37206	0.20456	-0.051
Mof_C 	C 	0.74933	0.37438	0.22985	0.002
Mof_C 	C 	0.74223	0.37414	0.20318	-0.002
Mof_C 	C 	0.71545	0.37441	0.19605	-0.008
Mof_C 	C 	0.76866	0.3707	0.19056	-0.078
Mof_H 	H 	0.7701	0.3692	0.1722	0.004
Mof_S 	S 	0.78204	0.37334	0.23948	0.083
Mof_C 	C 	0.77823	0.37411	0.22786	-0.069
Mof_H 	H 	0.7887	0.3755	0.243	0.009
Mof_S 	S 	0.76461	0.37304	0.17844	0.1
Mof_C 	C 	0.69835	0.37367	0.17283	-0.047
Mof_H 	H 	0.7062	0.3743	0.1561	-0.01
Mof_S 	S 	0.08698	0.70816	0.87629	0.099
Mof_O 	O 	0.03738	0.83434	0.87509	-0.376
Mof_O 	O 	0.07721	0.82019	0.88822	-0.386
Mof_O 	O 	0.12008	0.6612	0.87558	-0.374
Mof_C 	C 	0.05402	0.81735	0.88058	0.383
Mof_C 	C 	0.04544	0.7889	0.87794	-0.051
Mof_C 	C 	0.02015	0.74933	0.87562	0.002
Mof_C 	C 	0.04682	0.74223	0.87586	-0.002
Mof_C 	C 	0.05395	0.71545	0.87559	-0.008
Mof_C 	C 	0.05944	0.76866	0.8793	-0.078
Mof_H 	H 	0.0778	0.7701	0.8808	0.004
Mof_S 	S 	0.01052	0.78204	0.87666	0.083
Mof_C 	C 	0.02214	0.77823	0.87589	-0.069
Mof_H 	H 	0.007	0.7887	0.8745	0.009
Mof_S 	S 	0.07156	0.76461	0.87696	0.1
Mof_C 	C 	0.07717	0.69835	0.87633	-0.047
Mof_H 	H 	0.0939	0.7062	0.8757	-0.01
Mof_S 	S 	0.08698	0.20816	0.37629	0.099
Mof_O 	O 	0.03738	0.33434	0.37509	-0.376
Mof_O 	O 	0.07721	0.32019	0.38822	-0.386
Mof_O 	O 	0.12008	0.1612	0.37558	-0.374
Mof_C 	C 	0.05402	0.31735	0.38058	0.383
Mof_C 	C 	0.04544	0.2889	0.37794	-0.051
Mof_C 	C 	0.02015	0.24933	0.37562	0.002
Mof_C 	C 	0.04682	0.24223	0.37586	-0.002
Mof_C 	C 	0.05395	0.21545	0.37559	-0.008
Mof_C 	C 	0.05944	0.26866	0.3793	-0.078
Mof_H 	H 	0.0778	0.2701	0.3808	0.004
Mof_S 	S 	0.01052	0.28204	0.37666	0.083
Mof_C 	C 	0.02214	0.27823	0.37589	-0.069
Mof_H 	H 	0.007	0.2887	0.3745	0.009
Mof_S 	S 	0.07156	0.26461	0.37696	0.1
Mof_C 	C 	0.07717	0.19835	0.37633	-0.047
Mof_H 	H 	0.0939	0.2062	0.3757	-0.01
Mof_S 	S 	0.58698	0.70816	0.37629	0.099
Mof_O 	O 	0.53738	0.83434	0.37509	-0.376
Mof_O 	O 	0.57721	0.82019	0.38822	-0.386
Mof_O 	O 	0.62008	0.6612	0.37558	-0.374
Mof_C 	C 	0.55402	0.81735	0.38058	0.383
Mof_C 	C 	0.54544	0.7889	0.37794	-0.051
Mof_C 	C 	0.52015	0.74933	0.37562	0.002
Mof_C 	C 	0.54682	0.74223	0.37586	-0.002
Mof_C 	C 	0.55395	0.71545	0.37559	-0.008
Mof_C 	C 	0.55944	0.76866	0.3793	-0.078
Mof_H 	H 	0.5778	0.7701	0.3808	0.004
Mof_S 	S 	0.51052	0.78204	0.37666	0.083
Mof_C 	C 	0.52214	0.77823	0.37589	-0.069
Mof_H 	H 	0.507	0.7887	0.3745	0.009
Mof_S 	S 	0.57156	0.76461	0.37696	0.1
Mof_C 	C 	0.57717	0.69835	0.37633	-0.047
Mof_H 	H 	0.5939	0.7062	0.3757	-0.01
Mof_S 	S 	0.58698	0.20816	0.87629	0.099
Mof_O 	O 	0.53738	0.33434	0.87509	-0.376
Mof_O 	O 	0.57721	0.32019	0.88822	-0.386
Mof_O 	O 	0.62008	0.1612	0.87558	-0.374
Mof_C 	C 	0.55402	0.31735	0.88058	0.383
Mof_C 	C 	0.54544	0.2889	0.87794	-0.051
Mof_C 	C 	0.52015	0.24933	0.87562	0.002
Mof_C 	C 	0.54682	0.24223	0.87586	-0.002
Mof_C 	C 	0.55395	0.21545	0.87559	-0.008
Mof_C 	C 	0.55944	0.26866	0.8793	-0.078
Mof_H 	H 	0.5778	0.2701	0.8808	0.004
Mof_S 	S 	0.51052	0.28204	0.87666	0.083
Mof_C 	C 	0.52214	0.27823	0.87589	-0.069
Mof_H 	H 	0.507	0.2887	0.8745	0.009
Mof_S 	S 	0.57156	0.26461	0.87696	0.1
Mof_C 	C 	0.57717	0.19835	0.87633	-0.047
Mof_H 	H 	0.5939	0.2062	0.8757	-0.01
Mof_S 	S 	0.58698	0.04184	0.37371	0.099
Mof_O 	O 	0.53738	0.91566	0.37491	-0.376
Mof_O 	O 	0.57721	0.92981	0.36178	-0.386
Mof_O 	O 	0.62008	0.0888	0.37442	-0.374
Mof_C 	C 	0.55402	0.93265	0.36942	0.383
Mof_C 	C 	0.54544	0.9611	0.37206	-0.051
Mof_C 	C 	0.52015	0.00067	0.37438	0.002
Mof_C 	C 	0.54682	0.00777	0.37414	-0.002
Mof_C 	C 	0.55395	0.03455	0.37441	-0.008
Mof_C 	C 	0.55944	0.98134	0.3707	-0.078
Mof_H 	H 	0.5778	0.9799	0.3692	0.004
Mof_S 	S 	0.51052	0.96796	0.37334	0.083
Mof_C 	C 	0.52214	0.97177	0.37411	-0.069
Mof_H 	H 	0.507	0.9613	0.3755	0.009
Mof_S 	S 	0.57156	0.98539	0.37304	0.1
Mof_C 	C 	0.57717	0.05165	0.37367	-0.047
Mof_H 	H 	0.5939	0.0438	0.3743	-0.01
Mof_S 	S 	0.58698	0.54184	0.87371	0.099
Mof_O 	O 	0.53738	0.41566	0.87491	-0.376
Mof_O 	O 	0.57721	0.42981	0.86178	-0.386
Mof_O 	O 	0.62008	0.5888	0.87442	-0.374
Mof_C 	C 	0.55402	0.43265	0.86942	0.383
Mof_C 	C 	0.54544	0.4611	0.87206	-0.051
Mof_C 	C 	0.52015	0.50067	0.87438	0.002
Mof_C 	C 	0.54682	0.50777	0.87414	-0.002
Mof_C 	C 	0.55395	0.53455	0.87441	-0.008
Mof_C 	C 	0.55944	0.48134	0.8707	-0.078
Mof_H 	H 	0.5778	0.4799	0.8692	0.004
Mof_S 	S 	0.51052	0.46796	0.87334	0.083
Mof_C 	C 	0.52214	0.47177	0.87411	-0.069
Mof_H 	H 	0.507	0.4613	0.8755	0.009
Mof_S 	S 	0.57156	0.48539	0.87304	0.1
Mof_C 	C 	0.57717	0.55165	0.87367	-0.047
Mof_H 	H 	0.5939	0.5438	0.8743	-0.01
Mof_S 	S 	0.08698	0.04184	0.87371	0.099
Mof_O 	O 	0.03738	0.91566	0.87491	-0.376
Mof_O 	O 	0.07721	0.92981	0.86178	-0.386
Mof_O 	O 	0.12008	0.0888	0.87442	-0.374
Mof_C 	C 	0.05402	0.93265	0.86942	0.383
Mof_C 	C 	0.04544	0.9611	0.87206	-0.051
Mof_C 	C 	0.02015	0.00067	0.87438	0.002
Mof_C 	C 	0.04682	0.00777	0.87414	-0.002
Mof_C 	C 	0.05395	0.03455	0.87441	-0.008
Mof_C 	C 	0.05944	0.98134	0.8707	-0.078
Mof_H 	H 	0.0778	0.9799	0.8692	0.004
Mof_S 	S 	0.01052	0.96796	0.87334	0.083
Mof_C 	C 	0.02214	0.97177	0.87411	-0.069
Mof_H 	H 	0.007	0.9613	0.8755	0.009
Mof_S 	S 	0.07156	0.98539	0.87304	0.1
Mof_C 	C 	0.07717	0.05165	0.87367	-0.047
Mof_H 	H 	0.0939	0.0438	0.8743	-0.01
Mof_S 	S 	0.08698	0.54184	0.37371	0.099
Mof_O 	O 	0.03738	0.41566	0.37491	-0.376
Mof_O 	O 	0.07721	0.42981	0.36178	-0.386
Mof_O 	O 	0.12008	0.5888	0.37442	-0.374
Mof_C 	C 	0.05402	0.43265	0.36942	0.383
Mof_C 	C 	0.04544	0.4611	0.37206	-0.051
Mof_C 	C 	0.02015	0.50067	0.37438	0.002
Mof_C 	C 	0.04682	0.50777	0.37414	-0.002
Mof_C 	C 	0.05395	0.53455	0.37441	-0.008
Mof_C 	C 	0.05944	0.48134	0.3707	-0.078
Mof_H 	H 	0.0778	0.4799	0.3692	0.004
Mof_S 	S 	0.01052	0.46796	0.37334	0.083
Mof_C 	C 	0.02214	0.47177	0.37411	-0.069
Mof_H 	H 	0.007	0.4613	0.3755	0.009
Mof_S 	S 	0.07156	0.48539	0.37304	0.1
Mof_C 	C 	0.07717	0.55165	0.37367	-0.047
Mof_H 	H 	0.0939	0.5438	0.3743	-0.01
Mof_S 	S 	0.66302	0.54184	0.37629	0.099
Mof_O 	O 	0.71262	0.41566	0.37509	-0.376
Mof_O 	O 	0.67279	0.42981	0.38822	-0.386
Mof_O 	O 	0.62992	0.5888	0.37558	-0.374
Mof_C 	C 	0.69598	0.43265	0.38058	0.383
Mof_C 	C 	0.70456	0.4611	0.37794	-0.051
Mof_C 	C 	0.72985	0.50067	0.37562	0.002
Mof_C 	C 	0.70318	0.50777	0.37586	-0.002
Mof_C 	C 	0.69605	0.53455	0.37559	-0.008
Mof_C 	C 	0.69056	0.48134	0.3793	-0.078
Mof_H 	H 	0.6722	0.4799	0.3808	0.004
Mof_S 	S 	0.73948	0.46796	0.37666	0.083
Mof_C 	C 	0.72786	0.47177	0.37589	-0.069
Mof_H 	H 	0.743	0.4613	0.3745	0.009
Mof_S 	S 	0.67844	0.48539	0.37696	0.1
Mof_C 	C 	0.67283	0.55165	0.37633	-0.047
Mof_H 	H 	0.6561	0.5438	0.3757	-0.01
Mof_S 	S 	0.66302	0.04184	0.87629	0.099
Mof_O 	O 	0.71262	0.91566	0.87509	-0.376
Mof_O 	O 	0.67279	0.92981	0.88822	-0.386
Mof_O 	O 	0.62992	0.0888	0.87558	-0.374
Mof_C 	C 	0.69598	0.93265	0.88058	0.383
Mof_C 	C 	0.70456	0.9611	0.87794	-0.051
Mof_C 	C 	0.72985	0.00067	0.87562	0.002
Mof_C 	C 	0.70318	0.00777	0.87586	-0.002
Mof_C 	C 	0.69605	0.03455	0.87559	-0.008
Mof_C 	C 	0.69056	0.98134	0.8793	-0.078
Mof_H 	H 	0.6722	0.9799	0.8808	0.004
Mof_S 	S 	0.73948	0.96796	0.87666	0.083
Mof_C 	C 	0.72786	0.97177	0.87589	-0.069
Mof_H 	H 	0.743	0.9613	0.8745	0.009
Mof_S 	S 	0.67844	0.98539	0.87696	0.1
Mof_C 	C 	0.67283	0.05165	0.87633	-0.047
Mof_H 	H 	0.6561	0.0438	0.8757	-0.01
Mof_S 	S 	0.16302	0.54184	0.87629	0.099
Mof_O 	O 	0.21262	0.41566	0.87509	-0.376
Mof_O 	O 	0.17279	0.42981	0.88822	-0.386
Mof_O 	O 	0.12992	0.5888	0.87558	-0.374
Mof_C 	C 	0.19598	0.43265	0.88058	0.383
Mof_C 	C 	0.20456	0.4611	0.87794	-0.051
Mof_C 	C 	0.22985	0.50067	0.87562	0.002
Mof_C 	C 	0.20318	0.50777	0.87586	-0.002
Mof_C 	C 	0.19605	0.53455	0.87559	-0.008
Mof_C 	C 	0.19056	0.48134	0.8793	-0.078
Mof_H 	H 	0.1722	0.4799	0.8808	0.004
Mof_S 	S 	0.23948	0.46796	0.87666	0.083
Mof_C 	C 	0.22786	0.47177	0.87589	-0.069
Mof_H 	H 	0.243	0.4613	0.8745	0.009
Mof_S 	S 	0.17844	0.48539	0.87696	0.1
Mof_C 	C 	0.17283	0.55165	0.87633	-0.047
Mof_H 	H 	0.1561	0.5438	0.8757	-0.01
Mof_S 	S 	0.16302	0.04184	0.37629	0.099
Mof_O 	O 	0.21262	0.91566	0.37509	-0.376
Mof_O 	O 	0.17279	0.92981	0.38822	-0.386
Mof_O 	O 	0.12992	0.0888	0.37558	-0.374
Mof_C 	C 	0.19598	0.93265	0.38058	0.383
Mof_C 	C 	0.20456	0.9611	0.37794	-0.051
Mof_C 	C 	0.22985	0.00067	0.37562	0.002
Mof_C 	C 	0.20318	0.00777	0.37586	-0.002
Mof_C 	C 	0.19605	0.03455	0.37559	-0.008
Mof_C 	C 	0.19056	0.98134	0.3793	-0.078
Mof_H 	H 	0.1722	0.9799	0.3808	0.004
Mof_S 	S 	0.23948	0.96796	0.37666	0.083
Mof_C 	C 	0.22786	0.97177	0.37589	-0.069
Mof_H 	H 	0.243	0.9613	0.3745	0.009
Mof_S 	S 	0.17844	0.98539	0.37696	0.1
Mof_C 	C 	0.17283	0.05165	0.37633	-0.047
Mof_H 	H 	0.1561	0.0438	0.3757	-0.01
Mof_S 	S 	0.16302	0.20816	0.87371	0.099
Mof_O 	O 	0.21262	0.33434	0.87491	-0.376
Mof_O 	O 	0.17279	0.32019	0.86178	-0.386
Mof_O 	O 	0.12992	0.1612	0.87442	-0.374
Mof_C 	C 	0.19598	0.31735	0.86942	0.383
Mof_C 	C 	0.20456	0.2889	0.87206	-0.051
Mof_C 	C 	0.22985	0.24933	0.87438	0.002
Mof_C 	C 	0.20318	0.24223	0.87414	-0.002
Mof_C 	C 	0.19605	0.21545	0.87441	-0.008
Mof_C 	C 	0.19056	0.26866	0.8707	-0.078
Mof_H 	H 	0.1722	0.2701	0.8692	0.004
Mof_S 	S 	0.23948	0.28204	0.87334	0.083
Mof_C 	C 	0.22786	0.27823	0.87411	-0.069
Mof_H 	H 	0.243	0.2887	0.8755	0.009
Mof_S 	S 	0.17844	0.26461	0.87304	0.1
Mof_C 	C 	0.17283	0.19835	0.87367	-0.047
Mof_H 	H 	0.1561	0.2062	0.8743	-0.01
Mof_S 	S 	0.16302	0.70816	0.37371	0.099
Mof_O 	O 	0.21262	0.83434	0.37491	-0.376
Mof_O 	O 	0.17279	0.82019	0.36178	-0.386
Mof_O 	O 	0.12992	0.6612	0.37442	-0.374
Mof_C 	C 	0.19598	0.81735	0.36942	0.383
Mof_C 	C 	0.20456	0.7889	0.37206	-0.051
Mof_C 	C 	0.22985	0.74933	0.37438	0.002
Mof_C 	C 	0.20318	0.74223	0.37414	-0.002
Mof_C 	C 	0.19605	0.71545	0.37441	-0.008
Mof_C 	C 	0.19056	0.76866	0.3707	-0.078
Mof_H 	H 	0.1722	0.7701	0.3692	0.004
Mof_S 	S 	0.23948	0.78204	0.37334	0.083
Mof_C 	C 	0.22786	0.77823	0.37411	-0.069
Mof_H 	H 	0.243	0.7887	0.3755	0.009
Mof_S 	S 	0.17844	0.76461	0.37304	0.1
Mof_C 	C 	0.17283	0.69835	0.37367	-0.047
Mof_H 	H 	0.1561	0.7062	0.3743	-0.01
Mof_S 	S 	0.66302	0.20816	0.37371	0.099
Mof_O 	O 	0.71262	0.33434	0.37491	-0.376
Mof_O 	O 	0.67279	0.32019	0.36178	-0.386
Mof_O 	O 	0.62992	0.1612	0.37442	-0.374
Mof_C 	C 	0.69598	0.31735	0.36942	0.383
Mof_C 	C 	0.70456	0.2889	0.37206	-0.051
Mof_C 	C 	0.72985	0.24933	0.37438	0.002
Mof_C 	C 	0.70318	0.24223	0.37414	-0.002
Mof_C 	C 	0.69605	0.21545	0.37441	-0.008
Mof_C 	C 	0.69056	0.26866	0.3707	-0.078
Mof_H 	H 	0.6722	0.2701	0.3692	0.004
Mof_S 	S 	0.73948	0.28204	0.37334	0.083
Mof_C 	C 	0.72786	0.27823	0.37411	-0.069
Mof_H 	H 	0.743	0.2887	0.3755	0.009
Mof_S 	S 	0.67844	0.26461	0.37304	0.1
Mof_C 	C 	0.67283	0.19835	0.37367	-0.047
Mof_H 	H 	0.6561	0.2062	0.3743	-0.01
Mof_S 	S 	0.66302	0.70816	0.87371	0.099
Mof_O 	O 	0.71262	0.83434	0.87491	-0.376
Mof_O 	O 	0.67279	0.82019	0.86178	-0.386
Mof_O 	O 	0.62992	0.6612	0.87442	-0.374
Mof_C 	C 	0.69598	0.81735	0.86942	0.383
Mof_C 	C 	0.70456	0.7889	0.87206	-0.051
Mof_C 	C 	0.72985	0.74933	0.87438	0.002
Mof_C 	C 	0.70318	0.74223	0.87414	-0.002
Mof_C 	C 	0.69605	0.71545	0.87441	-0.008
Mof_C 	C 	0.69056	0.76866	0.8707	-0.078
Mof_H 	H 	0.6722	0.7701	0.8692	0.004
Mof_S 	S 	0.73948	0.78204	0.87334	0.083
Mof_C 	C 	0.72786	0.77823	0.87411	-0.069
Mof_H 	H 	0.743	0.7887	0.8755	0.009
Mof_S 	S 	0.67844	0.76461	0.87304	0.1
Mof_C 	C 	0.67283	0.69835	0.87367	-0.047
Mof_H 	H 	0.6561	0.7062	0.8743	-0.01
Mof_S 	S 	0.87629	0.08698	0.70816	0.099
Mof_O 	O 	0.87509	0.03738	0.83434	-0.376
Mof_O 	O 	0.88822	0.07721	0.82019	-0.386
Mof_O 	O 	0.87558	0.12008	0.6612	-0.374
Mof_C 	C 	0.88058	0.05402	0.81735	0.383
Mof_C 	C 	0.87794	0.04544	0.7889	-0.051
Mof_C 	C 	0.87562	0.02015	0.74933	0.002
Mof_C 	C 	0.87586	0.04682	0.74223	-0.002
Mof_C 	C 	0.87559	0.05395	0.71545	-0.008
Mof_C 	C 	0.8793	0.05944	0.76866	-0.078
Mof_H 	H 	0.8808	0.0778	0.7701	0.004
Mof_S 	S 	0.87666	0.01052	0.78204	0.083
Mof_C 	C 	0.87589	0.02214	0.77823	-0.069
Mof_H 	H 	0.8745	0.007	0.7887	0.009
Mof_S 	S 	0.87696	0.07156	0.76461	0.1
Mof_C 	C 	0.87633	0.07717	0.69835	-0.047
Mof_H 	H 	0.8757	0.0939	0.7062	-0.01
Mof_S 	S 	0.87629	0.58698	0.20816	0.099
Mof_O 	O 	0.87509	0.53738	0.33434	-0.376
Mof_O 	O 	0.88822	0.57721	0.32019	-0.386
Mof_O 	O 	0.87558	0.62008	0.1612	-0.374
Mof_C 	C 	0.88058	0.55402	0.31735	0.383
Mof_C 	C 	0.87794	0.54544	0.2889	-0.051
Mof_C 	C 	0.87562	0.52015	0.24933	0.002
Mof_C 	C 	0.87586	0.54682	0.24223	-0.002
Mof_C 	C 	0.87559	0.55395	0.21545	-0.008
Mof_C 	C 	0.8793	0.55944	0.26866	-0.078
Mof_H 	H 	0.8808	0.5778	0.2701	0.004
Mof_S 	S 	0.87666	0.51052	0.28204	0.083
Mof_C 	C 	0.87589	0.52214	0.27823	-0.069
Mof_H 	H 	0.8745	0.507	0.2887	0.009
Mof_S 	S 	0.87696	0.57156	0.26461	0.1
Mof_C 	C 	0.87633	0.57717	0.19835	-0.047
Mof_H 	H 	0.8757	0.5939	0.2062	-0.01
Mof_S 	S 	0.37629	0.08698	0.20816	0.099
Mof_O 	O 	0.37509	0.03738	0.33434	-0.376
Mof_O 	O 	0.38822	0.07721	0.32019	-0.386
Mof_O 	O 	0.37558	0.12008	0.1612	-0.374
Mof_C 	C 	0.38058	0.05402	0.31735	0.383
Mof_C 	C 	0.37794	0.04544	0.2889	-0.051
Mof_C 	C 	0.37562	0.02015	0.24933	0.002
Mof_C 	C 	0.37586	0.04682	0.24223	-0.002
Mof_C 	C 	0.37559	0.05395	0.21545	-0.008
Mof_C 	C 	0.3793	0.05944	0.26866	-0.078
Mof_H 	H 	0.3808	0.0778	0.2701	0.004
Mof_S 	S 	0.37666	0.01052	0.28204	0.083
Mof_C 	C 	0.37589	0.02214	0.27823	-0.069
Mof_H 	H 	0.3745	0.007	0.2887	0.009
Mof_S 	S 	0.37696	0.07156	0.26461	0.1
Mof_C 	C 	0.37633	0.07717	0.19835	-0.047
Mof_H 	H 	0.3757	0.0939	0.2062	-0.01
Mof_S 	S 	0.37629	0.58698	0.70816	0.099
Mof_O 	O 	0.37509	0.53738	0.83434	-0.376
Mof_O 	O 	0.38822	0.57721	0.82019	-0.386
Mof_O 	O 	0.37558	0.62008	0.6612	-0.374
Mof_C 	C 	0.38058	0.55402	0.81735	0.383
Mof_C 	C 	0.37794	0.54544	0.7889	-0.051
Mof_C 	C 	0.37562	0.52015	0.74933	0.002
Mof_C 	C 	0.37586	0.54682	0.74223	-0.002
Mof_C 	C 	0.37559	0.55395	0.71545	-0.008
Mof_C 	C 	0.3793	0.55944	0.76866	-0.078
Mof_H 	H 	0.3808	0.5778	0.7701	0.004
Mof_S 	S 	0.37666	0.51052	0.78204	0.083
Mof_C 	C 	0.37589	0.52214	0.77823	-0.069
Mof_H 	H 	0.3745	0.507	0.7887	0.009
Mof_S 	S 	0.37696	0.57156	0.76461	0.1
Mof_C 	C 	0.37633	0.57717	0.69835	-0.047
Mof_H 	H 	0.3757	0.5939	0.7062	-0.01
Mof_S 	S 	0.37371	0.58698	0.04184	0.099
Mof_O 	O 	0.37491	0.53738	0.91566	-0.376
Mof_O 	O 	0.36178	0.57721	0.92981	-0.386
Mof_O 	O 	0.37442	0.62008	0.0888	-0.374
Mof_C 	C 	0.36942	0.55402	0.93265	0.383
Mof_C 	C 	0.37206	0.54544	0.9611	-0.051
Mof_C 	C 	0.37438	0.52015	0.00067	0.002
Mof_C 	C 	0.37414	0.54682	0.00777	-0.002
Mof_C 	C 	0.37441	0.55395	0.03455	-0.008
Mof_C 	C 	0.3707	0.55944	0.98134	-0.078
Mof_H 	H 	0.3692	0.5778	0.9799	0.004
Mof_S 	S 	0.37334	0.51052	0.96796	0.083
Mof_C 	C 	0.37411	0.52214	0.97177	-0.069
Mof_H 	H 	0.3755	0.507	0.9613	0.009
Mof_S 	S 	0.37304	0.57156	0.98539	0.1
Mof_C 	C 	0.37367	0.57717	0.05165	-0.047
Mof_H 	H 	0.3743	0.5939	0.0438	-0.01
Mof_S 	S 	0.37371	0.08698	0.54184	0.099
Mof_O 	O 	0.37491	0.03738	0.41566	-0.376
Mof_O 	O 	0.36178	0.07721	0.42981	-0.386
Mof_O 	O 	0.37442	0.12008	0.5888	-0.374
Mof_C 	C 	0.36942	0.05402	0.43265	0.383
Mof_C 	C 	0.37206	0.04544	0.4611	-0.051
Mof_C 	C 	0.37438	0.02015	0.50067	0.002
Mof_C 	C 	0.37414	0.04682	0.50777	-0.002
Mof_C 	C 	0.37441	0.05395	0.53455	-0.008
Mof_C 	C 	0.3707	0.05944	0.48134	-0.078
Mof_H 	H 	0.3692	0.0778	0.4799	0.004
Mof_S 	S 	0.37334	0.01052	0.46796	0.083
Mof_C 	C 	0.37411	0.02214	0.47177	-0.069
Mof_H 	H 	0.3755	0.007	0.4613	0.009
Mof_S 	S 	0.37304	0.07156	0.48539	0.1
Mof_C 	C 	0.37367	0.07717	0.55165	-0.047
Mof_H 	H 	0.3743	0.0939	0.5438	-0.01
Mof_S 	S 	0.87371	0.58698	0.54184	0.099
Mof_O 	O 	0.87491	0.53738	0.41566	-0.376
Mof_O 	O 	0.86178	0.57721	0.42981	-0.386
Mof_O 	O 	0.87442	0.62008	0.5888	-0.374
Mof_C 	C 	0.86942	0.55402	0.43265	0.383
Mof_C 	C 	0.87206	0.54544	0.4611	-0.051
Mof_C 	C 	0.87438	0.52015	0.50067	0.002
Mof_C 	C 	0.87414	0.54682	0.50777	-0.002
Mof_C 	C 	0.87441	0.55395	0.53455	-0.008
Mof_C 	C 	0.8707	0.55944	0.48134	-0.078
Mof_H 	H 	0.8692	0.5778	0.4799	0.004
Mof_S 	S 	0.87334	0.51052	0.46796	0.083
Mof_C 	C 	0.87411	0.52214	0.47177	-0.069
Mof_H 	H 	0.8755	0.507	0.4613	0.009
Mof_S 	S 	0.87304	0.57156	0.48539	0.1
Mof_C 	C 	0.87367	0.57717	0.55165	-0.047
Mof_H 	H 	0.8743	0.5939	0.5438	-0.01
Mof_S 	S 	0.87371	0.08698	0.04184	0.099
Mof_O 	O 	0.87491	0.03738	0.91566	-0.376
Mof_O 	O 	0.86178	0.07721	0.92981	-0.386
Mof_O 	O 	0.87442	0.12008	0.0888	-0.374
Mof_C 	C 	0.86942	0.05402	0.93265	0.383
Mof_C 	C 	0.87206	0.04544	0.9611	-0.051
Mof_C 	C 	0.87438	0.02015	0.00067	0.002
Mof_C 	C 	0.87414	0.04682	0.00777	-0.002
Mof_C 	C 	0.87441	0.05395	0.03455	-0.008
Mof_C 	C 	0.8707	0.05944	0.98134	-0.078
Mof_H 	H 	0.8692	0.0778	0.9799	0.004
Mof_S 	S 	0.87334	0.01052	0.96796	0.083
Mof_C 	C 	0.87411	0.02214	0.97177	-0.069
Mof_H 	H 	0.8755	0.007	0.9613	0.009
Mof_S 	S 	0.87304	0.07156	0.98539	0.1
Mof_C 	C 	0.87367	0.07717	0.05165	-0.047
Mof_H 	H 	0.8743	0.0939	0.0438	-0.01
Mof_S 	S 	0.37629	0.66302	0.54184	0.099
Mof_O 	O 	0.37509	0.71262	0.41566	-0.376
Mof_O 	O 	0.38822	0.67279	0.42981	-0.386
Mof_O 	O 	0.37558	0.62992	0.5888	-0.374
Mof_C 	C 	0.38058	0.69598	0.43265	0.383
Mof_C 	C 	0.37794	0.70456	0.4611	-0.051
Mof_C 	C 	0.37562	0.72985	0.50067	0.002
Mof_C 	C 	0.37586	0.70318	0.50777	-0.002
Mof_C 	C 	0.37559	0.69605	0.53455	-0.008
Mof_C 	C 	0.3793	0.69056	0.48134	-0.078
Mof_H 	H 	0.3808	0.6722	0.4799	0.004
Mof_S 	S 	0.37666	0.73948	0.46796	0.083
Mof_C 	C 	0.37589	0.72786	0.47177	-0.069
Mof_H 	H 	0.3745	0.743	0.4613	0.009
Mof_S 	S 	0.37696	0.67844	0.48539	0.1
Mof_C 	C 	0.37633	0.67283	0.55165	-0.047
Mof_H 	H 	0.3757	0.6561	0.5438	-0.01
Mof_S 	S 	0.37629	0.16302	0.04184	0.099
Mof_O 	O 	0.37509	0.21262	0.91566	-0.376
Mof_O 	O 	0.38822	0.17279	0.92981	-0.386
Mof_O 	O 	0.37558	0.12992	0.0888	-0.374
Mof_C 	C 	0.38058	0.19598	0.93265	0.383
Mof_C 	C 	0.37794	0.20456	0.9611	-0.051
Mof_C 	C 	0.37562	0.22985	0.00067	0.002
Mof_C 	C 	0.37586	0.20318	0.00777	-0.002
Mof_C 	C 	0.37559	0.19605	0.03455	-0.008
Mof_C 	C 	0.3793	0.19056	0.98134	-0.078
Mof_H 	H 	0.3808	0.1722	0.9799	0.004
Mof_S 	S 	0.37666	0.23948	0.96796	0.083
Mof_C 	C 	0.37589	0.22786	0.97177	-0.069
Mof_H 	H 	0.3745	0.243	0.9613	0.009
Mof_S 	S 	0.37696	0.17844	0.98539	0.1
Mof_C 	C 	0.37633	0.17283	0.05165	-0.047
Mof_H 	H 	0.3757	0.1561	0.0438	-0.01
Mof_S 	S 	0.87629	0.66302	0.04184	0.099
Mof_O 	O 	0.87509	0.71262	0.91566	-0.376
Mof_O 	O 	0.88822	0.67279	0.92981	-0.386
Mof_O 	O 	0.87558	0.62992	0.0888	-0.374
Mof_C 	C 	0.88058	0.69598	0.93265	0.383
Mof_C 	C 	0.87794	0.70456	0.9611	-0.051
Mof_C 	C 	0.87562	0.72985	0.00067	0.002
Mof_C 	C 	0.87586	0.70318	0.00777	-0.002
Mof_C 	C 	0.87559	0.69605	0.03455	-0.008
Mof_C 	C 	0.8793	0.69056	0.98134	-0.078
Mof_H 	H 	0.8808	0.6722	0.9799	0.004
Mof_S 	S 	0.87666	0.73948	0.96796	0.083
Mof_C 	C 	0.87589	0.72786	0.97177	-0.069
Mof_H 	H 	0.8745	0.743	0.9613	0.009
Mof_S 	S 	0.87696	0.67844	0.98539	0.1
Mof_C 	C 	0.87633	0.67283	0.05165	-0.047
Mof_H 	H 	0.8757	0.6561	0.0438	-0.01
Mof_S 	S 	0.87629	0.16302	0.54184	0.099
Mof_O 	O 	0.87509	0.21262	0.41566	-0.376
Mof_O 	O 	0.88822	0.17279	0.42981	-0.386
Mof_O 	O 	0.87558	0.12992	0.5888	-0.374
Mof_C 	C 	0.88058	0.19598	0.43265	0.383
Mof_C 	C 	0.87794	0.20456	0.4611	-0.051
Mof_C 	C 	0.87562	0.22985	0.50067	0.002
Mof_C 	C 	0.87586	0.20318	0.50777	-0.002
Mof_C 	C 	0.87559	0.19605	0.53455	-0.008
Mof_C 	C 	0.8793	0.19056	0.48134	-0.078
Mof_H 	H 	0.8808	0.1722	0.4799	0.004
Mof_S 	S 	0.87666	0.23948	0.46796	0.083
Mof_C 	C 	0.87589	0.22786	0.47177	-0.069
Mof_H 	H 	0.8745	0.243	0.4613	0.009
Mof_S 	S 	0.87696	0.17844	0.48539	0.1
Mof_C 	C 	0.87633	0.17283	0.55165	-0.047
Mof_H 	H 	0.8757	0.1561	0.5438	-0.01
Mof_S 	S 	0.87371	0.16302	0.20816	0.099
Mof_O 	O 	0.87491	0.21262	0.33434	-0.376
Mof_O 	O 	0.86178	0.17279	0.32019	-0.386
Mof_O 	O 	0.87442	0.12992	0.1612	-0.374
Mof_C 	C 	0.86942	0.19598	0.31735	0.383
Mof_C 	C 	0.87206	0.20456	0.2889	-0.051
Mof_C 	C 	0.87438	0.22985	0.24933	0.002
Mof_C 	C 	0.87414	0.20318	0.24223	-0.002
Mof_C 	C 	0.87441	0.19605	0.21545	-0.008
Mof_C 	C 	0.8707	0.19056	0.26866	-0.078
Mof_H 	H 	0.8692	0.1722	0.2701	0.004
Mof_S 	S 	0.87334	0.23948	0.28204	0.083
Mof_C 	C 	0.87411	0.22786	0.27823	-0.069
Mof_H 	H 	0.8755	0.243	0.2887	0.009
Mof_S 	S 	0.87304	0.17844	0.26461	0.1
Mof_C 	C 	0.87367	0.17283	0.19835	-0.047
Mof_H 	H 	0.8743	0.1561	0.2062	-0.01
Mof_S 	S 	0.87371	0.66302	0.70816	0.099
Mof_O 	O 	0.87491	0.71262	0.83434	-0.376
Mof_O 	O 	0.86178	0.67279	0.82019	-0.386
Mof_O 	O 	0.87442	0.62992	0.6612	-0.374
Mof_C 	C 	0.86942	0.69598	0.81735	0.383
Mof_C 	C 	0.87206	0.70456	0.7889	-0.051
Mof_C 	C 	0.87438	0.72985	0.74933	0.002
Mof_C 	C 	0.87414	0.70318	0.74223	-0.002
Mof_C 	C 	0.87441	0.69605	0.71545	-0.008
Mof_C 	C 	0.8707	0.69056	0.76866	-0.078
Mof_H 	H 	0.8692	0.6722	0.7701	0.004
Mof_S 	S 	0.87334	0.73948	0.78204	0.083
Mof_C 	C 	0.87411	0.72786	0.77823	-0.069
Mof_H 	H 	0.8755	0.743	0.7887	0.009
Mof_S 	S 	0.87304	0.67844	0.76461	0.1
Mof_C 	C 	0.87367	0.67283	0.69835	-0.047
Mof_H 	H 	0.8743	0.6561	0.7062	-0.01
Mof_S 	S 	0.37371	0.16302	0.70816	0.099
Mof_O 	O 	0.37491	0.21262	0.83434	-0.376
Mof_O 	O 	0.36178	0.17279	0.82019	-0.386
Mof_O 	O 	0.37442	0.12992	0.6612	-0.374
Mof_C 	C 	0.36942	0.19598	0.81735	0.383
Mof_C 	C 	0.37206	0.20456	0.7889	-0.051
Mof_C 	C 	0.37438	0.22985	0.74933	0.002
Mof_C 	C 	0.37414	0.20318	0.74223	-0.002
Mof_C 	C 	0.37441	0.19605	0.71545	-0.008
Mof_C 	C 	0.3707	0.19056	0.76866	-0.078
Mof_H 	H 	0.3692	0.1722	0.7701	0.004
Mof_S 	S 	0.37334	0.23948	0.78204	0.083
Mof_C 	C 	0.37411	0.22786	0.77823	-0.069
Mof_H 	H 	0.3755	0.243	0.7887	0.009
Mof_S 	S 	0.37304	0.17844	0.76461	0.1
Mof_C 	C 	0.37367	0.17283	0.69835	-0.047
Mof_H 	H 	0.3743	0.1561	0.7062	-0.01
Mof_S 	S 	0.37371	0.66302	0.20816	0.099
Mof_O 	O 	0.37491	0.71262	0.33434	-0.376
Mof_O 	O 	0.36178	0.67279	0.32019	-0.386
Mof_O 	O 	0.37442	0.62992	0.1612	-0.374
Mof_C 	C 	0.36942	0.69598	0.31735	0.383
Mof_C 	C 	0.37206	0.70456	0.2889	-0.051
Mof_C 	C 	0.37438	0.72985	0.24933	0.002
Mof_C 	C 	0.37414	0.70318	0.24223	-0.002
Mof_C 	C 	0.37441	0.69605	0.21545	-0.008
Mof_C 	C 	0.3707	0.69056	0.26866	-0.078
Mof_H 	H 	0.3692	0.6722	0.2701	0.004
Mof_S 	S 	0.37334	0.73948	0.28204	0.083
Mof_C 	C 	0.37411	0.72786	0.27823	-0.069
Mof_H 	H 	0.3755	0.743	0.2887	0.009
Mof_S 	S 	0.37304	0.67844	0.26461	0.1
Mof_C 	C 	0.37367	0.67283	0.19835	-0.047
Mof_H 	H 	0.3743	0.6561	0.2062	-0.01
Mof_S 	S 	0.62629	0.95816	0.41302	0.099
Mof_O 	O 	0.62509	0.08434	0.46262	-0.376
Mof_O 	O 	0.63822	0.07019	0.42279	-0.386
Mof_O 	O 	0.62558	0.9112	0.37992	-0.374
Mof_C 	C 	0.63058	0.06735	0.44598	0.383
Mof_C 	C 	0.62794	0.0389	0.45456	-0.051
Mof_C 	C 	0.62562	0.99933	0.47985	0.002
Mof_C 	C 	0.62586	0.99223	0.45318	-0.002
Mof_C 	C 	0.62559	0.96545	0.44605	-0.008
Mof_C 	C 	0.6293	0.01866	0.44056	-0.078
Mof_H 	H 	0.6308	0.0201	0.4222	0.004
Mof_S 	S 	0.62666	0.03204	0.48948	0.083
Mof_C 	C 	0.62589	0.02823	0.47786	-0.069
Mof_H 	H 	0.6245	0.0387	0.493	0.009
Mof_S 	S 	0.62696	0.01461	0.42844	0.1
Mof_C 	C 	0.62633	0.94835	0.42283	-0.047
Mof_H 	H 	0.6257	0.9562	0.4061	-0.01
Mof_S 	S 	0.62629	0.45816	0.91302	0.099
Mof_O 	O 	0.62509	0.58434	0.96262	-0.376
Mof_O 	O 	0.63822	0.57019	0.92279	-0.386
Mof_O 	O 	0.62558	0.4112	0.87992	-0.374
Mof_C 	C 	0.63058	0.56735	0.94598	0.383
Mof_C 	C 	0.62794	0.5389	0.95456	-0.051
Mof_C 	C 	0.62562	0.49933	0.97985	0.002
Mof_C 	C 	0.62586	0.49223	0.95318	-0.002
Mof_C 	C 	0.62559	0.46545	0.94605	-0.008
Mof_C 	C 	0.6293	0.51866	0.94056	-0.078
Mof_H 	H 	0.6308	0.5201	0.9222	0.004
Mof_S 	S 	0.62666	0.53204	0.98948	0.083
Mof_C 	C 	0.62589	0.52823	0.97786	-0.069
Mof_H 	H 	0.6245	0.5387	0.993	0.009
Mof_S 	S 	0.62696	0.51461	0.92844	0.1
Mof_C 	C 	0.62633	0.44835	0.92283	-0.047
Mof_H 	H 	0.6257	0.4562	0.9061	-0.01
Mof_S 	S 	0.12629	0.95816	0.91302	0.099
Mof_O 	O 	0.12509	0.08434	0.96262	-0.376
Mof_O 	O 	0.13822	0.07019	0.92279	-0.386
Mof_O 	O 	0.12558	0.9112	0.87992	-0.374
Mof_C 	C 	0.13058	0.06735	0.94598	0.383
Mof_C 	C 	0.12794	0.0389	0.95456	-0.051
Mof_C 	C 	0.12562	0.99933	0.97985	0.002
Mof_C 	C 	0.12586	0.99223	0.95318	-0.002
Mof_C 	C 	0.12559	0.96545	0.94605	-0.008
Mof_C 	C 	0.1293	0.01866	0.94056	-0.078
Mof_H 	H 	0.1308	0.0201	0.9222	0.004
Mof_S 	S 	0.12666	0.03204	0.98948	0.083
Mof_C 	C 	0.12589	0.02823	0.97786	-0.069
Mof_H 	H 	0.1245	0.0387	0.993	0.009
Mof_S 	S 	0.12696	0.01461	0.92844	0.1
Mof_C 	C 	0.12633	0.94835	0.92283	-0.047
Mof_H 	H 	0.1257	0.9562	0.9061	-0.01
Mof_S 	S 	0.12629	0.45816	0.41302	0.099
Mof_O 	O 	0.12509	0.58434	0.46262	-0.376
Mof_O 	O 	0.13822	0.57019	0.42279	-0.386
Mof_O 	O 	0.12558	0.4112	0.37992	-0.374
Mof_C 	C 	0.13058	0.56735	0.44598	0.383
Mof_C 	C 	0.12794	0.5389	0.45456	-0.051
Mof_C 	C 	0.12562	0.49933	0.47985	0.002
Mof_C 	C 	0.12586	0.49223	0.45318	-0.002
Mof_C 	C 	0.12559	0.46545	0.44605	-0.008
Mof_C 	C 	0.1293	0.51866	0.44056	-0.078
Mof_H 	H 	0.1308	0.5201	0.4222	0.004
Mof_S 	S 	0.12666	0.53204	0.48948	0.083
Mof_C 	C 	0.12589	0.52823	0.47786	-0.069
Mof_H 	H 	0.1245	0.5387	0.493	0.009
Mof_S 	S 	0.12696	0.51461	0.42844	0.1
Mof_C 	C 	0.12633	0.44835	0.42283	-0.047
Mof_H 	H 	0.1257	0.4562	0.4061	-0.01
Mof_S 	S 	0.12371	0.29184	0.91302	0.099
Mof_O 	O 	0.12491	0.16566	0.96262	-0.376
Mof_O 	O 	0.11178	0.17981	0.92279	-0.386
Mof_O 	O 	0.12442	0.3388	0.87992	-0.374
Mof_C 	C 	0.11942	0.18265	0.94598	0.383
Mof_C 	C 	0.12206	0.2111	0.95456	-0.051
Mof_C 	C 	0.12438	0.25067	0.97985	0.002
Mof_C 	C 	0.12414	0.25777	0.95318	-0.002
Mof_C 	C 	0.12441	0.28455	0.94605	-0.008
Mof_C 	C 	0.1207	0.23134	0.94056	-0.078
Mof_H 	H 	0.1192	0.2299	0.9222	0.004
Mof_S 	S 	0.12334	0.21796	0.98948	0.083
Mof_C 	C 	0.12411	0.22177	0.97786	-0.069
Mof_H 	H 	0.1255	0.2113	0.993	0.009
Mof_S 	S 	0.12304	0.23539	0.92844	0.1
Mof_C 	C 	0.12367	0.30165	0.92283	-0.047
Mof_H 	H 	0.1243	0.2938	0.9061	-0.01
Mof_S 	S 	0.12371	0.79184	0.41302	0.099
Mof_O 	O 	0.12491	0.66566	0.46262	-0.376
Mof_O 	O 	0.11178	0.67981	0.42279	-0.386
Mof_O 	O 	0.12442	0.8388	0.37992	-0.374
Mof_C 	C 	0.11942	0.68265	0.44598	0.383
Mof_C 	C 	0.12206	0.7111	0.45456	-0.051
Mof_C 	C 	0.12438	0.75067	0.47985	0.002
Mof_C 	C 	0.12414	0.75777	0.45318	-0.002
Mof_C 	C 	0.12441	0.78455	0.44605	-0.008
Mof_C 	C 	0.1207	0.73134	0.44056	-0.078
Mof_H 	H 	0.1192	0.7299	0.4222	0.004
Mof_S 	S 	0.12334	0.71796	0.48948	0.083
Mof_C 	C 	0.12411	0.72177	0.47786	-0.069
Mof_H 	H 	0.1255	0.7113	0.493	0.009
Mof_S 	S 	0.12304	0.73539	0.42844	0.1
Mof_C 	C 	0.12367	0.80165	0.42283	-0.047
Mof_H 	H 	0.1243	0.7938	0.4061	-0.01
Mof_S 	S 	0.62371	0.29184	0.41302	0.099
Mof_O 	O 	0.62491	0.16566	0.46262	-0.376
Mof_O 	O 	0.61178	0.17981	0.42279	-0.386
Mof_O 	O 	0.62442	0.3388	0.37992	-0.374
Mof_C 	C 	0.61942	0.18265	0.44598	0.383
Mof_C 	C 	0.62206	0.2111	0.45456	-0.051
Mof_C 	C 	0.62438	0.25067	0.47985	0.002
Mof_C 	C 	0.62414	0.25777	0.45318	-0.002
Mof_C 	C 	0.62441	0.28455	0.44605	-0.008
Mof_C 	C 	0.6207	0.23134	0.44056	-0.078
Mof_H 	H 	0.6192	0.2299	0.4222	0.004
Mof_S 	S 	0.62334	0.21796	0.48948	0.083
Mof_C 	C 	0.62411	0.22177	0.47786	-0.069
Mof_H 	H 	0.6255	0.2113	0.493	0.009
Mof_S 	S 	0.62304	0.23539	0.42844	0.1
Mof_C 	C 	0.62367	0.30165	0.42283	-0.047
Mof_H 	H 	0.6243	0.2938	0.4061	-0.01
Mof_S 	S 	0.62371	0.79184	0.91302	0.099
Mof_O 	O 	0.62491	0.66566	0.96262	-0.376
Mof_O 	O 	0.61178	0.67981	0.92279	-0.386
Mof_O 	O 	0.62442	0.8388	0.87992	-0.374
Mof_C 	C 	0.61942	0.68265	0.94598	0.383
Mof_C 	C 	0.62206	0.7111	0.95456	-0.051
Mof_C 	C 	0.62438	0.75067	0.97985	0.002
Mof_C 	C 	0.62414	0.75777	0.95318	-0.002
Mof_C 	C 	0.62441	0.78455	0.94605	-0.008
Mof_C 	C 	0.6207	0.73134	0.94056	-0.078
Mof_H 	H 	0.6192	0.7299	0.9222	0.004
Mof_S 	S 	0.62334	0.71796	0.98948	0.083
Mof_C 	C 	0.62411	0.72177	0.97786	-0.069
Mof_H 	H 	0.6255	0.7113	0.993	0.009
Mof_S 	S 	0.62304	0.73539	0.92844	0.1
Mof_C 	C 	0.62367	0.80165	0.92283	-0.047
Mof_H 	H 	0.6243	0.7938	0.9061	-0.01
Mof_S 	S 	0.12629	0.79184	0.83698	0.099
Mof_O 	O 	0.12509	0.66566	0.78738	-0.376
Mof_O 	O 	0.13822	0.67981	0.82721	-0.386
Mof_O 	O 	0.12558	0.8388	0.87008	-0.374
Mof_C 	C 	0.13058	0.68265	0.80402	0.383
Mof_C 	C 	0.12794	0.7111	0.79544	-0.051
Mof_C 	C 	0.12562	0.75067	0.77015	0.002
Mof_C 	C 	0.12586	0.75777	0.79682	-0.002
Mof_C 	C 	0.12559	0.78455	0.80395	-0.008
Mof_C 	C 	0.1293	0.73134	0.80944	-0.078
Mof_H 	H 	0.1308	0.7299	0.8278	0.004
Mof_S 	S 	0.12666	0.71796	0.76052	0.083
Mof_C 	C 	0.12589	0.72177	0.77214	-0.069
Mof_H 	H 	0.1245	0.7113	0.757	0.009
Mof_S 	S 	0.12696	0.73539	0.82156	0.1
Mof_C 	C 	0.12633	0.80165	0.82717	-0.047
Mof_H 	H 	0.1257	0.7938	0.8439	-0.01
Mof_S 	S 	0.12629	0.29184	0.33698	0.099
Mof_O 	O 	0.12509	0.16566	0.28738	-0.376
Mof_O 	O 	0.13822	0.17981	0.32721	-0.386
Mof_O 	O 	0.12558	0.3388	0.37008	-0.374
Mof_C 	C 	0.13058	0.18265	0.30402	0.383
Mof_C 	C 	0.12794	0.2111	0.29544	-0.051
Mof_C 	C 	0.12562	0.25067	0.27015	0.002
Mof_C 	C 	0.12586	0.25777	0.29682	-0.002
Mof_C 	C 	0.12559	0.28455	0.30395	-0.008
Mof_C 	C 	0.1293	0.23134	0.30944	-0.078
Mof_H 	H 	0.1308	0.2299	0.3278	0.004
Mof_S 	S 	0.12666	0.21796	0.26052	0.083
Mof_C 	C 	0.12589	0.22177	0.27214	-0.069
Mof_H 	H 	0.1245	0.2113	0.257	0.009
Mof_S 	S 	0.12696	0.23539	0.32156	0.1
Mof_C 	C 	0.12633	0.30165	0.32717	-0.047
Mof_H 	H 	0.1257	0.2938	0.3439	-0.01
Mof_S 	S 	0.62629	0.79184	0.33698	0.099
Mof_O 	O 	0.62509	0.66566	0.28738	-0.376
Mof_O 	O 	0.63822	0.67981	0.32721	-0.386
Mof_O 	O 	0.62558	0.8388	0.37008	-0.374
Mof_C 	C 	0.63058	0.68265	0.30402	0.383
Mof_C 	C 	0.62794	0.7111	0.29544	-0.051
Mof_C 	C 	0.62562	0.75067	0.27015	0.002
Mof_C 	C 	0.62586	0.75777	0.29682	-0.002
Mof_C 	C 	0.62559	0.78455	0.30395	-0.008
Mof_C 	C 	0.6293	0.73134	0.30944	-0.078
Mof_H 	H 	0.6308	0.7299	0.3278	0.004
Mof_S 	S 	0.62666	0.71796	0.26052	0.083
Mof_C 	C 	0.62589	0.72177	0.27214	-0.069
Mof_H 	H 	0.6245	0.7113	0.257	0.009
Mof_S 	S 	0.62696	0.73539	0.32156	0.1
Mof_C 	C 	0.62633	0.80165	0.32717	-0.047
Mof_H 	H 	0.6257	0.7938	0.3439	-0.01
Mof_S 	S 	0.62629	0.29184	0.83698	0.099
Mof_O 	O 	0.62509	0.16566	0.78738	-0.376
Mof_O 	O 	0.63822	0.17981	0.82721	-0.386
Mof_O 	O 	0.62558	0.3388	0.87008	-0.374
Mof_C 	C 	0.63058	0.18265	0.80402	0.383
Mof_C 	C 	0.62794	0.2111	0.79544	-0.051
Mof_C 	C 	0.62562	0.25067	0.77015	0.002
Mof_C 	C 	0.62586	0.25777	0.79682	-0.002
Mof_C 	C 	0.62559	0.28455	0.80395	-0.008
Mof_C 	C 	0.6293	0.23134	0.80944	-0.078
Mof_H 	H 	0.6308	0.2299	0.8278	0.004
Mof_S 	S 	0.62666	0.21796	0.76052	0.083
Mof_C 	C 	0.62589	0.22177	0.77214	-0.069
Mof_H 	H 	0.6245	0.2113	0.757	0.009
Mof_S 	S 	0.62696	0.23539	0.82156	0.1
Mof_C 	C 	0.62633	0.30165	0.82717	-0.047
Mof_H 	H 	0.6257	0.2938	0.8439	-0.01
Mof_S 	S 	0.62371	0.45816	0.33698	0.099
Mof_O 	O 	0.62491	0.58434	0.28738	-0.376
Mof_O 	O 	0.61178	0.57019	0.32721	-0.386
Mof_O 	O 	0.62442	0.4112	0.37008	-0.374
Mof_C 	C 	0.61942	0.56735	0.30402	0.383
Mof_C 	C 	0.62206	0.5389	0.29544	-0.051
Mof_C 	C 	0.62438	0.49933	0.27015	0.002
Mof_C 	C 	0.62414	0.49223	0.29682	-0.002
Mof_C 	C 	0.62441	0.46545	0.30395	-0.008
Mof_C 	C 	0.6207	0.51866	0.30944	-0.078
Mof_H 	H 	0.6192	0.5201	0.3278	0.004
Mof_S 	S 	0.62334	0.53204	0.26052	0.083
Mof_C 	C 	0.62411	0.52823	0.27214	-0.069
Mof_H 	H 	0.6255	0.5387	0.257	0.009
Mof_S 	S 	0.62304	0.51461	0.32156	0.1
Mof_C 	C 	0.62367	0.44835	0.32717	-0.047
Mof_H 	H 	0.6243	0.4562	0.3439	-0.01
Mof_S 	S 	0.62371	0.95816	0.83698	0.099
Mof_O 	O 	0.62491	0.08434	0.78738	-0.376
Mof_O 	O 	0.61178	0.07019	0.82721	-0.386
Mof_O 	O 	0.62442	0.9112	0.87008	-0.374
Mof_C 	C 	0.61942	0.06735	0.80402	0.383
Mof_C 	C 	0.62206	0.0389	0.79544	-0.051
Mof_C 	C 	0.62438	0.99933	0.77015	0.002
Mof_C 	C 	0.62414	0.99223	0.79682	-0.002
Mof_C 	C 	0.62441	0.96545	0.80395	-0.008
Mof_C 	C 	0.6207	0.01866	0.80944	-0.078
Mof_H 	H 	0.6192	0.0201	0.8278	0.004
Mof_S 	S 	0.62334	0.03204	0.76052	0.083
Mof_C 	C 	0.62411	0.02823	0.77214	-0.069
Mof_H 	H 	0.6255	0.0387	0.757	0.009
Mof_S 	S 	0.62304	0.01461	0.82156	0.1
Mof_C 	C 	0.62367	0.94835	0.82717	-0.047
Mof_H 	H 	0.6243	0.9562	0.8439	-0.01
Mof_S 	S 	0.12371	0.45816	0.83698	0.099
Mof_O 	O 	0.12491	0.58434	0.78738	-0.376
Mof_O 	O 	0.11178	0.57019	0.82721	-0.386
Mof_O 	O 	0.12442	0.4112	0.87008	-0.374
Mof_C 	C 	0.11942	0.56735	0.80402	0.383
Mof_C 	C 	0.12206	0.5389	0.79544	-0.051
Mof_C 	C 	0.12438	0.49933	0.77015	0.002
Mof_C 	C 	0.12414	0.49223	0.79682	-0.002
Mof_C 	C 	0.12441	0.46545	0.80395	-0.008
Mof_C 	C 	0.1207	0.51866	0.80944	-0.078
Mof_H 	H 	0.1192	0.5201	0.8278	0.004
Mof_S 	S 	0.12334	0.53204	0.76052	0.083
Mof_C 	C 	0.12411	0.52823	0.77214	-0.069
Mof_H 	H 	0.1255	0.5387	0.757	0.009
Mof_S 	S 	0.12304	0.51461	0.82156	0.1
Mof_C 	C 	0.12367	0.44835	0.82717	-0.047
Mof_H 	H 	0.1243	0.4562	0.8439	-0.01
Mof_S 	S 	0.12371	0.95816	0.33698	0.099
Mof_O 	O 	0.12491	0.08434	0.28738	-0.376
Mof_O 	O 	0.11178	0.07019	0.32721	-0.386
Mof_O 	O 	0.12442	0.9112	0.37008	-0.374
Mof_C 	C 	0.11942	0.06735	0.30402	0.383
Mof_C 	C 	0.12206	0.0389	0.29544	-0.051
Mof_C 	C 	0.12438	0.99933	0.27015	0.002
Mof_C 	C 	0.12414	0.99223	0.29682	-0.002
Mof_C 	C 	0.12441	0.96545	0.30395	-0.008
Mof_C 	C 	0.1207	0.01866	0.30944	-0.078
Mof_H 	H 	0.1192	0.0201	0.3278	0.004
Mof_S 	S 	0.12334	0.03204	0.26052	0.083
Mof_C 	C 	0.12411	0.02823	0.27214	-0.069
Mof_H 	H 	0.1255	0.0387	0.257	0.009
Mof_S 	S 	0.12304	0.01461	0.32156	0.1
Mof_C 	C 	0.12367	0.94835	0.32717	-0.047
Mof_H 	H 	0.1243	0.9562	0.3439	-0.01
Mof_S 	S 	0.45816	0.33698	0.62371	0.099
Mof_O 	O 	0.58434	0.28738	0.62491	-0.376
Mof_O 	O 	0.57019	0.32721	0.61178	-0.386
Mof_O 	O 	0.4112	0.37008	0.62442	-0.374
Mof_C 	C 	0.56735	0.30402	0.61942	0.383
Mof_C 	C 	0.5389	0.29544	0.62206	-0.051
Mof_C 	C 	0.49933	0.27015	0.62438	0.002
Mof_C 	C 	0.49223	0.29682	0.62414	-0.002
Mof_C 	C 	0.46545	0.30395	0.62441	-0.008
Mof_C 	C 	0.51866	0.30944	0.6207	-0.078
Mof_H 	H 	0.5201	0.3278	0.6192	0.004
Mof_S 	S 	0.53204	0.26052	0.62334	0.083
Mof_C 	C 	0.52823	0.27214	0.62411	-0.069
Mof_H 	H 	0.5387	0.257	0.6255	0.009
Mof_S 	S 	0.51461	0.32156	0.62304	0.1
Mof_C 	C 	0.44835	0.32717	0.62367	-0.047
Mof_H 	H 	0.4562	0.3439	0.6243	-0.01
Mof_S 	S 	0.45816	0.83698	0.12371	0.099
Mof_O 	O 	0.58434	0.78738	0.12491	-0.376
Mof_O 	O 	0.57019	0.82721	0.11178	-0.386
Mof_O 	O 	0.4112	0.87008	0.12442	-0.374
Mof_C 	C 	0.56735	0.80402	0.11942	0.383
Mof_C 	C 	0.5389	0.79544	0.12206	-0.051
Mof_C 	C 	0.49933	0.77015	0.12438	0.002
Mof_C 	C 	0.49223	0.79682	0.12414	-0.002
Mof_C 	C 	0.46545	0.80395	0.12441	-0.008
Mof_C 	C 	0.51866	0.80944	0.1207	-0.078
Mof_H 	H 	0.5201	0.8278	0.1192	0.004
Mof_S 	S 	0.53204	0.76052	0.12334	0.083
Mof_C 	C 	0.52823	0.77214	0.12411	-0.069
Mof_H 	H 	0.5387	0.757	0.1255	0.009
Mof_S 	S 	0.51461	0.82156	0.12304	0.1
Mof_C 	C 	0.44835	0.82717	0.12367	-0.047
Mof_H 	H 	0.4562	0.8439	0.1243	-0.01
Mof_S 	S 	0.95816	0.33698	0.12371	0.099
Mof_O 	O 	0.08434	0.28738	0.12491	-0.376
Mof_O 	O 	0.07019	0.32721	0.11178	-0.386
Mof_O 	O 	0.9112	0.37008	0.12442	-0.374
Mof_C 	C 	0.06735	0.30402	0.11942	0.383
Mof_C 	C 	0.0389	0.29544	0.12206	-0.051
Mof_C 	C 	0.99933	0.27015	0.12438	0.002
Mof_C 	C 	0.99223	0.29682	0.12414	-0.002
Mof_C 	C 	0.96545	0.30395	0.12441	-0.008
Mof_C 	C 	0.01866	0.30944	0.1207	-0.078
Mof_H 	H 	0.0201	0.3278	0.1192	0.004
Mof_S 	S 	0.03204	0.26052	0.12334	0.083
Mof_C 	C 	0.02823	0.27214	0.12411	-0.069
Mof_H 	H 	0.0387	0.257	0.1255	0.009
Mof_S 	S 	0.01461	0.32156	0.12304	0.1
Mof_C 	C 	0.94835	0.32717	0.12367	-0.047
Mof_H 	H 	0.9562	0.3439	0.1243	-0.01
Mof_S 	S 	0.95816	0.83698	0.62371	0.099
Mof_O 	O 	0.08434	0.78738	0.62491	-0.376
Mof_O 	O 	0.07019	0.82721	0.61178	-0.386
Mof_O 	O 	0.9112	0.87008	0.62442	-0.374
Mof_C 	C 	0.06735	0.80402	0.61942	0.383
Mof_C 	C 	0.0389	0.79544	0.62206	-0.051
Mof_C 	C 	0.99933	0.77015	0.62438	0.002
Mof_C 	C 	0.99223	0.79682	0.62414	-0.002
Mof_C 	C 	0.96545	0.80395	0.62441	-0.008
Mof_C 	C 	0.01866	0.80944	0.6207	-0.078
Mof_H 	H 	0.0201	0.8278	0.6192	0.004
Mof_S 	S 	0.03204	0.76052	0.62334	0.083
Mof_C 	C 	0.02823	0.77214	0.62411	-0.069
Mof_H 	H 	0.0387	0.757	0.6255	0.009
Mof_S 	S 	0.01461	0.82156	0.62304	0.1
Mof_C 	C 	0.94835	0.82717	0.62367	-0.047
Mof_H 	H 	0.9562	0.8439	0.6243	-0.01
Mof_S 	S 	0.79184	0.83698	0.12629	0.099
Mof_O 	O 	0.66566	0.78738	0.12509	-0.376
Mof_O 	O 	0.67981	0.82721	0.13822	-0.386
Mof_O 	O 	0.8388	0.87008	0.12558	-0.374
Mof_C 	C 	0.68265	0.80402	0.13058	0.383
Mof_C 	C 	0.7111	0.79544	0.12794	-0.051
Mof_C 	C 	0.75067	0.77015	0.12562	0.002
Mof_C 	C 	0.75777	0.79682	0.12586	-0.002
Mof_C 	C 	0.78455	0.80395	0.12559	-0.008
Mof_C 	C 	0.73134	0.80944	0.1293	-0.078
Mof_H 	H 	0.7299	0.8278	0.1308	0.004
Mof_S 	S 	0.71796	0.76052	0.12666	0.083
Mof_C 	C 	0.72177	0.77214	0.12589	-0.069
Mof_H 	H 	0.7113	0.757	0.1245	0.009
Mof_S 	S 	0.73539	0.82156	0.12696	0.1
Mof_C 	C 	0.80165	0.82717	0.12633	-0.047
Mof_H 	H 	0.7938	0.8439	0.1257	-0.01
Mof_S 	S 	0.79184	0.33698	0.62629	0.099
Mof_O 	O 	0.66566	0.28738	0.62509	-0.376
Mof_O 	O 	0.67981	0.32721	0.63822	-0.386
Mof_O 	O 	0.8388	0.37008	0.62558	-0.374
Mof_C 	C 	0.68265	0.30402	0.63058	0.383
Mof_C 	C 	0.7111	0.29544	0.62794	-0.051
Mof_C 	C 	0.75067	0.27015	0.62562	0.002
Mof_C 	C 	0.75777	0.29682	0.62586	-0.002
Mof_C 	C 	0.78455	0.30395	0.62559	-0.008
Mof_C 	C 	0.73134	0.30944	0.6293	-0.078
Mof_H 	H 	0.7299	0.3278	0.6308	0.004
Mof_S 	S 	0.71796	0.26052	0.62666	0.083
Mof_C 	C 	0.72177	0.27214	0.62589	-0.069
Mof_H 	H 	0.7113	0.257	0.6245	0.009
Mof_S 	S 	0.73539	0.32156	0.62696	0.1
Mof_C 	C 	0.80165	0.32717	0.62633	-0.047
Mof_H 	H 	0.7938	0.3439	0.6257	-0.01
Mof_S 	S 	0.29184	0.83698	0.62629	0.099
Mof_O 	O 	0.16566	0.78738	0.62509	-0.376
Mof_O 	O 	0.17981	0.82721	0.63822	-0.386
Mof_O 	O 	0.3388	0.87008	0.62558	-0.374
Mof_C 	C 	0.18265	0.80402	0.63058	0.383
Mof_C 	C 	0.2111	0.79544	0.62794	-0.051
Mof_C 	C 	0.25067	0.77015	0.62562	0.002
Mof_C 	C 	0.25777	0.79682	0.62586	-0.002
Mof_C 	C 	0.28455	0.80395	0.62559	-0.008
Mof_C 	C 	0.23134	0.80944	0.6293	-0.078
Mof_H 	H 	0.2299	0.8278	0.6308	0.004
Mof_S 	S 	0.21796	0.76052	0.62666	0.083
Mof_C 	C 	0.22177	0.77214	0.62589	-0.069
Mof_H 	H 	0.2113	0.757	0.6245	0.009
Mof_S 	S 	0.23539	0.82156	0.62696	0.1
Mof_C 	C 	0.30165	0.82717	0.62633	-0.047
Mof_H 	H 	0.2938	0.8439	0.6257	-0.01
Mof_S 	S 	0.29184	0.33698	0.12629	0.099
Mof_O 	O 	0.16566	0.28738	0.12509	-0.376
Mof_O 	O 	0.17981	0.32721	0.13822	-0.386
Mof_O 	O 	0.3388	0.37008	0.12558	-0.374
Mof_C 	C 	0.18265	0.30402	0.13058	0.383
Mof_C 	C 	0.2111	0.29544	0.12794	-0.051
Mof_C 	C 	0.25067	0.27015	0.12562	0.002
Mof_C 	C 	0.25777	0.29682	0.12586	-0.002
Mof_C 	C 	0.28455	0.30395	0.12559	-0.008
Mof_C 	C 	0.23134	0.30944	0.1293	-0.078
Mof_H 	H 	0.2299	0.3278	0.1308	0.004
Mof_S 	S 	0.21796	0.26052	0.12666	0.083
Mof_C 	C 	0.22177	0.27214	0.12589	-0.069
Mof_H 	H 	0.2113	0.257	0.1245	0.009
Mof_S 	S 	0.23539	0.32156	0.12696	0.1
Mof_C 	C 	0.30165	0.32717	0.12633	-0.047
Mof_H 	H 	0.2938	0.3439	0.1257	-0.01
Mof_S 	S 	0.29184	0.91302	0.12371	0.099
Mof_O 	O 	0.16566	0.96262	0.12491	-0.376
Mof_O 	O 	0.17981	0.92279	0.11178	-0.386
Mof_O 	O 	0.3388	0.87992	0.12442	-0.374
Mof_C 	C 	0.18265	0.94598	0.11942	0.383
Mof_C 	C 	0.2111	0.95456	0.12206	-0.051
Mof_C 	C 	0.25067	0.97985	0.12438	0.002
Mof_C 	C 	0.25777	0.95318	0.12414	-0.002
Mof_C 	C 	0.28455	0.94605	0.12441	-0.008
Mof_C 	C 	0.23134	0.94056	0.1207	-0.078
Mof_H 	H 	0.2299	0.9222	0.1192	0.004
Mof_S 	S 	0.21796	0.98948	0.12334	0.083
Mof_C 	C 	0.22177	0.97786	0.12411	-0.069
Mof_H 	H 	0.2113	0.993	0.1255	0.009
Mof_S 	S 	0.23539	0.92844	0.12304	0.1
Mof_C 	C 	0.30165	0.92283	0.12367	-0.047
Mof_H 	H 	0.2938	0.9061	0.1243	-0.01
Mof_S 	S 	0.29184	0.41302	0.62371	0.099
Mof_O 	O 	0.16566	0.46262	0.62491	-0.376
Mof_O 	O 	0.17981	0.42279	0.61178	-0.386
Mof_O 	O 	0.3388	0.37992	0.62442	-0.374
Mof_C 	C 	0.18265	0.44598	0.61942	0.383
Mof_C 	C 	0.2111	0.45456	0.62206	-0.051
Mof_C 	C 	0.25067	0.47985	0.62438	0.002
Mof_C 	C 	0.25777	0.45318	0.62414	-0.002
Mof_C 	C 	0.28455	0.44605	0.62441	-0.008
Mof_C 	C 	0.23134	0.44056	0.6207	-0.078
Mof_H 	H 	0.2299	0.4222	0.6192	0.004
Mof_S 	S 	0.21796	0.48948	0.62334	0.083
Mof_C 	C 	0.22177	0.47786	0.62411	-0.069
Mof_H 	H 	0.2113	0.493	0.6255	0.009
Mof_S 	S 	0.23539	0.42844	0.62304	0.1
Mof_C 	C 	0.30165	0.42283	0.62367	-0.047
Mof_H 	H 	0.2938	0.4061	0.6243	-0.01
Mof_S 	S 	0.79184	0.91302	0.62371	0.099
Mof_O 	O 	0.66566	0.96262	0.62491	-0.376
Mof_O 	O 	0.67981	0.92279	0.61178	-0.386
Mof_O 	O 	0.8388	0.87992	0.62442	-0.374
Mof_C 	C 	0.68265	0.94598	0.61942	0.383
Mof_C 	C 	0.7111	0.95456	0.62206	-0.051
Mof_C 	C 	0.75067	0.97985	0.62438	0.002
Mof_C 	C 	0.75777	0.95318	0.62414	-0.002
Mof_C 	C 	0.78455	0.94605	0.62441	-0.008
Mof_C 	C 	0.73134	0.94056	0.6207	-0.078
Mof_H 	H 	0.7299	0.9222	0.6192	0.004
Mof_S 	S 	0.71796	0.98948	0.62334	0.083
Mof_C 	C 	0.72177	0.97786	0.62411	-0.069
Mof_H 	H 	0.7113	0.993	0.6255	0.009
Mof_S 	S 	0.73539	0.92844	0.62304	0.1
Mof_C 	C 	0.80165	0.92283	0.62367	-0.047
Mof_H 	H 	0.7938	0.9061	0.6243	-0.01
Mof_S 	S 	0.79184	0.41302	0.12371	0.099
Mof_O 	O 	0.66566	0.46262	0.12491	-0.376
Mof_O 	O 	0.67981	0.42279	0.11178	-0.386
Mof_O 	O 	0.8388	0.37992	0.12442	-0.374
Mof_C 	C 	0.68265	0.44598	0.11942	0.383
Mof_C 	C 	0.7111	0.45456	0.12206	-0.051
Mof_C 	C 	0.75067	0.47985	0.12438	0.002
Mof_C 	C 	0.75777	0.45318	0.12414	-0.002
Mof_C 	C 	0.78455	0.44605	0.12441	-0.008
Mof_C 	C 	0.73134	0.44056	0.1207	-0.078
Mof_H 	H 	0.7299	0.4222	0.1192	0.004
Mof_S 	S 	0.71796	0.48948	0.12334	0.083
Mof_C 	C 	0.72177	0.47786	0.12411	-0.069
Mof_H 	H 	0.7113	0.493	0.1255	0.009
Mof_S 	S 	0.73539	0.42844	0.12304	0.1
Mof_C 	C 	0.80165	0.42283	0.12367	-0.047
Mof_H 	H 	0.7938	0.4061	0.1243	-0.01
Mof_S 	S 	0.95816	0.41302	0.62629	0.099
Mof_O 	O 	0.08434	0.46262	0.62509	-0.376
Mof_O 	O 	0.07019	0.42279	0.63822	-0.386
Mof_O 	O 	0.9112	0.37992	0.62558	-0.374
Mof_C 	C 	0.06735	0.44598	0.63058	0.383
Mof_C 	C 	0.0389	0.45456	0.62794	-0.051
Mof_C 	C 	0.99933	0.47985	0.62562	0.002
Mof_C 	C 	0.99223	0.45318	0.62586	-0.002
Mof_C 	C 	0.96545	0.44605	0.62559	-0.008
Mof_C 	C 	0.01866	0.44056	0.6293	-0.078
Mof_H 	H 	0.0201	0.4222	0.6308	0.004
Mof_S 	S 	0.03204	0.48948	0.62666	0.083
Mof_C 	C 	0.02823	0.47786	0.62589	-0.069
Mof_H 	H 	0.0387	0.493	0.6245	0.009
Mof_S 	S 	0.01461	0.42844	0.62696	0.1
Mof_C 	C 	0.94835	0.42283	0.62633	-0.047
Mof_H 	H 	0.9562	0.4061	0.6257	-0.01
Mof_S 	S 	0.95816	0.91302	0.12629	0.099
Mof_O 	O 	0.08434	0.96262	0.12509	-0.376
Mof_O 	O 	0.07019	0.92279	0.13822	-0.386
Mof_O 	O 	0.9112	0.87992	0.12558	-0.374
Mof_C 	C 	0.06735	0.94598	0.13058	0.383
Mof_C 	C 	0.0389	0.95456	0.12794	-0.051
Mof_C 	C 	0.99933	0.97985	0.12562	0.002
Mof_C 	C 	0.99223	0.95318	0.12586	-0.002
Mof_C 	C 	0.96545	0.94605	0.12559	-0.008
Mof_C 	C 	0.01866	0.94056	0.1293	-0.078
Mof_H 	H 	0.0201	0.9222	0.1308	0.004
Mof_S 	S 	0.03204	0.98948	0.12666	0.083
Mof_C 	C 	0.02823	0.97786	0.12589	-0.069
Mof_H 	H 	0.0387	0.993	0.1245	0.009
Mof_S 	S 	0.01461	0.92844	0.12696	0.1
Mof_C 	C 	0.94835	0.92283	0.12633	-0.047
Mof_H 	H 	0.9562	0.9061	0.1257	-0.01
Mof_S 	S 	0.45816	0.41302	0.12629	0.099
Mof_O 	O 	0.58434	0.46262	0.12509	-0.376
Mof_O 	O 	0.57019	0.42279	0.13822	-0.386
Mof_O 	O 	0.4112	0.37992	0.12558	-0.374
Mof_C 	C 	0.56735	0.44598	0.13058	0.383
Mof_C 	C 	0.5389	0.45456	0.12794	-0.051
Mof_C 	C 	0.49933	0.47985	0.12562	0.002
Mof_C 	C 	0.49223	0.45318	0.12586	-0.002
Mof_C 	C 	0.46545	0.44605	0.12559	-0.008
Mof_C 	C 	0.51866	0.44056	0.1293	-0.078
Mof_H 	H 	0.5201	0.4222	0.1308	0.004
Mof_S 	S 	0.53204	0.48948	0.12666	0.083
Mof_C 	C 	0.52823	0.47786	0.12589	-0.069
Mof_H 	H 	0.5387	0.493	0.1245	0.009
Mof_S 	S 	0.51461	0.42844	0.12696	0.1
Mof_C 	C 	0.44835	0.42283	0.12633	-0.047
Mof_H 	H 	0.4562	0.4061	0.1257	-0.01
Mof_S 	S 	0.45816	0.91302	0.62629	0.099
Mof_O 	O 	0.58434	0.96262	0.62509	-0.376
Mof_O 	O 	0.57019	0.92279	0.63822	-0.386
Mof_O 	O 	0.4112	0.87992	0.62558	-0.374
Mof_C 	C 	0.56735	0.94598	0.63058	0.383
Mof_C 	C 	0.5389	0.95456	0.62794	-0.051
Mof_C 	C 	0.49933	0.97985	0.62562	0.002
Mof_C 	C 	0.49223	0.95318	0.62586	-0.002
Mof_C 	C 	0.46545	0.94605	0.62559	-0.008
Mof_C 	C 	0.51866	0.94056	0.6293	-0.078
Mof_H 	H 	0.5201	0.9222	0.6308	0.004
Mof_S 	S 	0.53204	0.98948	0.62666	0.083
Mof_C 	C 	0.52823	0.97786	0.62589	-0.069
Mof_H 	H 	0.5387	0.993	0.6245	0.009
Mof_S 	S 	0.51461	0.92844	0.62696	0.1
Mof_C 	C 	0.44835	0.92283	0.62633	-0.047
Mof_H 	H 	0.4562	0.9061	0.6257	-0.01
Mof_S 	S 	0.83698	0.12629	0.79184	0.099
Mof_O 	O 	0.78738	0.12509	0.66566	-0.376
Mof_O 	O 	0.82721	0.13822	0.67981	-0.386
Mof_O 	O 	0.87008	0.12558	0.8388	-0.374
Mof_C 	C 	0.80402	0.13058	0.68265	0.383
Mof_C 	C 	0.79544	0.12794	0.7111	-0.051
Mof_C 	C 	0.77015	0.12562	0.75067	0.002
Mof_C 	C 	0.79682	0.12586	0.75777	-0.002
Mof_C 	C 	0.80395	0.12559	0.78455	-0.008
Mof_C 	C 	0.80944	0.1293	0.73134	-0.078
Mof_H 	H 	0.8278	0.1308	0.7299	0.004
Mof_S 	S 	0.76052	0.12666	0.71796	0.083
Mof_C 	C 	0.77214	0.12589	0.72177	-0.069
Mof_H 	H 	0.757	0.1245	0.7113	0.009
Mof_S 	S 	0.82156	0.12696	0.73539	0.1
Mof_C 	C 	0.82717	0.12633	0.80165	-0.047
Mof_H 	H 	0.8439	0.1257	0.7938	-0.01
Mof_S 	S 	0.83698	0.62629	0.29184	0.099
Mof_O 	O 	0.78738	0.62509	0.16566	-0.376
Mof_O 	O 	0.82721	0.63822	0.17981	-0.386
Mof_O 	O 	0.87008	0.62558	0.3388	-0.374
Mof_C 	C 	0.80402	0.63058	0.18265	0.383
Mof_C 	C 	0.79544	0.62794	0.2111	-0.051
Mof_C 	C 	0.77015	0.62562	0.25067	0.002
Mof_C 	C 	0.79682	0.62586	0.25777	-0.002
Mof_C 	C 	0.80395	0.62559	0.28455	-0.008
Mof_C 	C 	0.80944	0.6293	0.23134	-0.078
Mof_H 	H 	0.8278	0.6308	0.2299	0.004
Mof_S 	S 	0.76052	0.62666	0.21796	0.083
Mof_C 	C 	0.77214	0.62589	0.22177	-0.069
Mof_H 	H 	0.757	0.6245	0.2113	0.009
Mof_S 	S 	0.82156	0.62696	0.23539	0.1
Mof_C 	C 	0.82717	0.62633	0.30165	-0.047
Mof_H 	H 	0.8439	0.6257	0.2938	-0.01
Mof_S 	S 	0.33698	0.12629	0.29184	0.099
Mof_O 	O 	0.28738	0.12509	0.16566	-0.376
Mof_O 	O 	0.32721	0.13822	0.17981	-0.386
Mof_O 	O 	0.37008	0.12558	0.3388	-0.374
Mof_C 	C 	0.30402	0.13058	0.18265	0.383
Mof_C 	C 	0.29544	0.12794	0.2111	-0.051
Mof_C 	C 	0.27015	0.12562	0.25067	0.002
Mof_C 	C 	0.29682	0.12586	0.25777	-0.002
Mof_C 	C 	0.30395	0.12559	0.28455	-0.008
Mof_C 	C 	0.30944	0.1293	0.23134	-0.078
Mof_H 	H 	0.3278	0.1308	0.2299	0.004
Mof_S 	S 	0.26052	0.12666	0.21796	0.083
Mof_C 	C 	0.27214	0.12589	0.22177	-0.069
Mof_H 	H 	0.257	0.1245	0.2113	0.009
Mof_S 	S 	0.32156	0.12696	0.23539	0.1
Mof_C 	C 	0.32717	0.12633	0.30165	-0.047
Mof_H 	H 	0.3439	0.1257	0.2938	-0.01
Mof_S 	S 	0.33698	0.62629	0.79184	0.099
Mof_O 	O 	0.28738	0.62509	0.66566	-0.376
Mof_O 	O 	0.32721	0.63822	0.67981	-0.386
Mof_O 	O 	0.37008	0.62558	0.8388	-0.374
Mof_C 	C 	0.30402	0.63058	0.68265	0.383
Mof_C 	C 	0.29544	0.62794	0.7111	-0.051
Mof_C 	C 	0.27015	0.62562	0.75067	0.002
Mof_C 	C 	0.29682	0.62586	0.75777	-0.002
Mof_C 	C 	0.30395	0.62559	0.78455	-0.008
Mof_C 	C 	0.30944	0.6293	0.73134	-0.078
Mof_H 	H 	0.3278	0.6308	0.7299	0.004
Mof_S 	S 	0.26052	0.62666	0.71796	0.083
Mof_C 	C 	0.27214	0.62589	0.72177	-0.069
Mof_H 	H 	0.257	0.6245	0.7113	0.009
Mof_S 	S 	0.32156	0.62696	0.73539	0.1
Mof_C 	C 	0.32717	0.62633	0.80165	-0.047
Mof_H 	H 	0.3439	0.6257	0.7938	-0.01
Mof_S 	S 	0.33698	0.62371	0.45816	0.099
Mof_O 	O 	0.28738	0.62491	0.58434	-0.376
Mof_O 	O 	0.32721	0.61178	0.57019	-0.386
Mof_O 	O 	0.37008	0.62442	0.4112	-0.374
Mof_C 	C 	0.30402	0.61942	0.56735	0.383
Mof_C 	C 	0.29544	0.62206	0.5389	-0.051
Mof_C 	C 	0.27015	0.62438	0.49933	0.002
Mof_C 	C 	0.29682	0.62414	0.49223	-0.002
Mof_C 	C 	0.30395	0.62441	0.46545	-0.008
Mof_C 	C 	0.30944	0.6207	0.51866	-0.078
Mof_H 	H 	0.3278	0.6192	0.5201	0.004
Mof_S 	S 	0.26052	0.62334	0.53204	0.083
Mof_C 	C 	0.27214	0.62411	0.52823	-0.069
Mof_H 	H 	0.257	0.6255	0.5387	0.009
Mof_S 	S 	0.32156	0.62304	0.51461	0.1
Mof_C 	C 	0.32717	0.62367	0.44835	-0.047
Mof_H 	H 	0.3439	0.6243	0.4562	-0.01
Mof_S 	S 	0.33698	0.12371	0.95816	0.099
Mof_O 	O 	0.28738	0.12491	0.08434	-0.376
Mof_O 	O 	0.32721	0.11178	0.07019	-0.386
Mof_O 	O 	0.37008	0.12442	0.9112	-0.374
Mof_C 	C 	0.30402	0.11942	0.06735	0.383
Mof_C 	C 	0.29544	0.12206	0.0389	-0.051
Mof_C 	C 	0.27015	0.12438	0.99933	0.002
Mof_C 	C 	0.29682	0.12414	0.99223	-0.002
Mof_C 	C 	0.30395	0.12441	0.96545	-0.008
Mof_C 	C 	0.30944	0.1207	0.01866	-0.078
Mof_H 	H 	0.3278	0.1192	0.0201	0.004
Mof_S 	S 	0.26052	0.12334	0.03204	0.083
Mof_C 	C 	0.27214	0.12411	0.02823	-0.069
Mof_H 	H 	0.257	0.1255	0.0387	0.009
Mof_S 	S 	0.32156	0.12304	0.01461	0.1
Mof_C 	C 	0.32717	0.12367	0.94835	-0.047
Mof_H 	H 	0.3439	0.1243	0.9562	-0.01
Mof_S 	S 	0.83698	0.62371	0.95816	0.099
Mof_O 	O 	0.78738	0.62491	0.08434	-0.376
Mof_O 	O 	0.82721	0.61178	0.07019	-0.386
Mof_O 	O 	0.87008	0.62442	0.9112	-0.374
Mof_C 	C 	0.80402	0.61942	0.06735	0.383
Mof_C 	C 	0.79544	0.62206	0.0389	-0.051
Mof_C 	C 	0.77015	0.62438	0.99933	0.002
Mof_C 	C 	0.79682	0.62414	0.99223	-0.002
Mof_C 	C 	0.80395	0.62441	0.96545	-0.008
Mof_C 	C 	0.80944	0.6207	0.01866	-0.078
Mof_H 	H 	0.8278	0.6192	0.0201	0.004
Mof_S 	S 	0.76052	0.62334	0.03204	0.083
Mof_C 	C 	0.77214	0.62411	0.02823	-0.069
Mof_H 	H 	0.757	0.6255	0.0387	0.009
Mof_S 	S 	0.82156	0.62304	0.01461	0.1
Mof_C 	C 	0.82717	0.62367	0.94835	-0.047
Mof_H 	H 	0.8439	0.6243	0.9562	-0.01
Mof_S 	S 	0.83698	0.12371	0.45816	0.099
Mof_O 	O 	0.78738	0.12491	0.58434	-0.376
Mof_O 	O 	0.82721	0.11178	0.57019	-0.386
Mof_O 	O 	0.87008	0.12442	0.4112	-0.374
Mof_C 	C 	0.80402	0.11942	0.56735	0.383
Mof_C 	C 	0.79544	0.12206	0.5389	-0.051
Mof_C 	C 	0.77015	0.12438	0.49933	0.002
Mof_C 	C 	0.79682	0.12414	0.49223	-0.002
Mof_C 	C 	0.80395	0.12441	0.46545	-0.008
Mof_C 	C 	0.80944	0.1207	0.51866	-0.078
Mof_H 	H 	0.8278	0.1192	0.5201	0.004
Mof_S 	S 	0.76052	0.12334	0.53204	0.083
Mof_C 	C 	0.77214	0.12411	0.52823	-0.069
Mof_H 	H 	0.757	0.1255	0.5387	0.009
Mof_S 	S 	0.82156	0.12304	0.51461	0.1
Mof_C 	C 	0.82717	0.12367	0.44835	-0.047
Mof_H 	H 	0.8439	0.1243	0.4562	-0.01
Mof_S 	S 	0.41302	0.62629	0.95816	0.099
Mof_O 	O 	0.46262	0.62509	0.08434	-0.376
Mof_O 	O 	0.42279	0.63822	0.07019	-0.386
Mof_O 	O 	0.37992	0.62558	0.9112	-0.374
Mof_C 	C 	0.44598	0.63058	0.06735	0.383
Mof_C 	C 	0.45456	0.62794	0.0389	-0.051
Mof_C 	C 	0.47985	0.62562	0.99933	0.002
Mof_C 	C 	0.45318	0.62586	0.99223	-0.002
Mof_C 	C 	0.44605	0.62559	0.96545	-0.008
Mof_C 	C 	0.44056	0.6293	0.01866	-0.078
Mof_H 	H 	0.4222	0.6308	0.0201	0.004
Mof_S 	S 	0.48948	0.62666	0.03204	0.083
Mof_C 	C 	0.47786	0.62589	0.02823	-0.069
Mof_H 	H 	0.493	0.6245	0.0387	0.009
Mof_S 	S 	0.42844	0.62696	0.01461	0.1
Mof_C 	C 	0.42283	0.62633	0.94835	-0.047
Mof_H 	H 	0.4061	0.6257	0.9562	-0.01
Mof_S 	S 	0.41302	0.12629	0.45816	0.099
Mof_O 	O 	0.46262	0.12509	0.58434	-0.376
Mof_O 	O 	0.42279	0.13822	0.57019	-0.386
Mof_O 	O 	0.37992	0.12558	0.4112	-0.374
Mof_C 	C 	0.44598	0.13058	0.56735	0.383
Mof_C 	C 	0.45456	0.12794	0.5389	-0.051
Mof_C 	C 	0.47985	0.12562	0.49933	0.002
Mof_C 	C 	0.45318	0.12586	0.49223	-0.002
Mof_C 	C 	0.44605	0.12559	0.46545	-0.008
Mof_C 	C 	0.44056	0.1293	0.51866	-0.078
Mof_H 	H 	0.4222	0.1308	0.5201	0.004
Mof_S 	S 	0.48948	0.12666	0.53204	0.083
Mof_C 	C 	0.47786	0.12589	0.52823	-0.069
Mof_H 	H 	0.493	0.1245	0.5387	0.009
Mof_S 	S 	0.42844	0.12696	0.51461	0.1
Mof_C 	C 	0.42283	0.12633	0.44835	-0.047
Mof_H 	H 	0.4061	0.1257	0.4562	-0.01
Mof_S 	S 	0.91302	0.62629	0.45816	0.099
Mof_O 	O 	0.96262	0.62509	0.58434	-0.376
Mof_O 	O 	0.92279	0.63822	0.57019	-0.386
Mof_O 	O 	0.87992	0.62558	0.4112	-0.374
Mof_C 	C 	0.94598	0.63058	0.56735	0.383
Mof_C 	C 	0.95456	0.62794	0.5389	-0.051
Mof_C 	C 	0.97985	0.62562	0.49933	0.002
Mof_C 	C 	0.95318	0.62586	0.49223	-0.002
Mof_C 	C 	0.94605	0.62559	0.46545	-0.008
Mof_C 	C 	0.94056	0.6293	0.51866	-0.078
Mof_H 	H 	0.9222	0.6308	0.5201	0.004
Mof_S 	S 	0.98948	0.62666	0.53204	0.083
Mof_C 	C 	0.97786	0.62589	0.52823	-0.069
Mof_H 	H 	0.993	0.6245	0.5387	0.009
Mof_S 	S 	0.92844	0.62696	0.51461	0.1
Mof_C 	C 	0.92283	0.62633	0.44835	-0.047
Mof_H 	H 	0.9061	0.6257	0.4562	-0.01
Mof_S 	S 	0.91302	0.12629	0.95816	0.099
Mof_O 	O 	0.96262	0.12509	0.08434	-0.376
Mof_O 	O 	0.92279	0.13822	0.07019	-0.386
Mof_O 	O 	0.87992	0.12558	0.9112	-0.374
Mof_C 	C 	0.94598	0.13058	0.06735	0.383
Mof_C 	C 	0.95456	0.12794	0.0389	-0.051
Mof_C 	C 	0.97985	0.12562	0.99933	0.002
Mof_C 	C 	0.95318	0.12586	0.99223	-0.002
Mof_C 	C 	0.94605	0.12559	0.96545	-0.008
Mof_C 	C 	0.94056	0.1293	0.01866	-0.078
Mof_H 	H 	0.9222	0.1308	0.0201	0.004
Mof_S 	S 	0.98948	0.12666	0.03204	0.083
Mof_C 	C 	0.97786	0.12589	0.02823	-0.069
Mof_H 	H 	0.993	0.1245	0.0387	0.009
Mof_S 	S 	0.92844	0.12696	0.01461	0.1
Mof_C 	C 	0.92283	0.12633	0.94835	-0.047
Mof_H 	H 	0.9061	0.1257	0.9562	-0.01
Mof_S 	S 	0.91302	0.12371	0.29184	0.099
Mof_O 	O 	0.96262	0.12491	0.16566	-0.376
Mof_O 	O 	0.92279	0.11178	0.17981	-0.386
Mof_O 	O 	0.87992	0.12442	0.3388	-0.374
Mof_C 	C 	0.94598	0.11942	0.18265	0.383
Mof_C 	C 	0.95456	0.12206	0.2111	-0.051
Mof_C 	C 	0.97985	0.12438	0.25067	0.002
Mof_C 	C 	0.95318	0.12414	0.25777	-0.002
Mof_C 	C 	0.94605	0.12441	0.28455	-0.008
Mof_C 	C 	0.94056	0.1207	0.23134	-0.078
Mof_H 	H 	0.9222	0.1192	0.2299	0.004
Mof_S 	S 	0.98948	0.12334	0.21796	0.083
Mof_C 	C 	0.97786	0.12411	0.22177	-0.069
Mof_H 	H 	0.993	0.1255	0.2113	0.009
Mof_S 	S 	0.92844	0.12304	0.23539	0.1
Mof_C 	C 	0.92283	0.12367	0.30165	-0.047
Mof_H 	H 	0.9061	0.1243	0.2938	-0.01
Mof_S 	S 	0.91302	0.62371	0.79184	0.099
Mof_O 	O 	0.96262	0.62491	0.66566	-0.376
Mof_O 	O 	0.92279	0.61178	0.67981	-0.386
Mof_O 	O 	0.87992	0.62442	0.8388	-0.374
Mof_C 	C 	0.94598	0.61942	0.68265	0.383
Mof_C 	C 	0.95456	0.62206	0.7111	-0.051
Mof_C 	C 	0.97985	0.62438	0.75067	0.002
Mof_C 	C 	0.95318	0.62414	0.75777	-0.002
Mof_C 	C 	0.94605	0.62441	0.78455	-0.008
Mof_C 	C 	0.94056	0.6207	0.73134	-0.078
Mof_H 	H 	0.9222	0.6192	0.7299	0.004
Mof_S 	S 	0.98948	0.62334	0.71796	0.083
Mof_C 	C 	0.97786	0.62411	0.72177	-0.069
Mof_H 	H 	0.993	0.6255	0.7113	0.009
Mof_S 	S 	0.92844	0.62304	0.73539	0.1
Mof_C 	C 	0.92283	0.62367	0.80165	-0.047
Mof_H 	H 	0.9061	0.6243	0.7938	-0.01
Mof_S 	S 	0.41302	0.12371	0.79184	0.099
Mof_O 	O 	0.46262	0.12491	0.66566	-0.376
Mof_O 	O 	0.42279	0.11178	0.67981	-0.386
Mof_O 	O 	0.37992	0.12442	0.8388	-0.374
Mof_C 	C 	0.44598	0.11942	0.68265	0.383
Mof_C 	C 	0.45456	0.12206	0.7111	-0.051
Mof_C 	C 	0.47985	0.12438	0.75067	0.002
Mof_C 	C 	0.45318	0.12414	0.75777	-0.002
Mof_C 	C 	0.44605	0.12441	0.78455	-0.008
Mof_C 	C 	0.44056	0.1207	0.73134	-0.078
Mof_H 	H 	0.4222	0.1192	0.7299	0.004
Mof_S 	S 	0.48948	0.12334	0.71796	0.083
Mof_C 	C 	0.47786	0.12411	0.72177	-0.069
Mof_H 	H 	0.493	0.1255	0.7113	0.009
Mof_S 	S 	0.42844	0.12304	0.73539	0.1
Mof_C 	C 	0.42283	0.12367	0.80165	-0.047
Mof_H 	H 	0.4061	0.1243	0.7938	-0.01
Mof_S 	S 	0.41302	0.62371	0.29184	0.099
Mof_O 	O 	0.46262	0.62491	0.16566	-0.376
Mof_O 	O 	0.42279	0.61178	0.17981	-0.386
Mof_O 	O 	0.37992	0.62442	0.3388	-0.374
Mof_C 	C 	0.44598	0.61942	0.18265	0.383
Mof_C 	C 	0.45456	0.62206	0.2111	-0.051
Mof_C 	C 	0.47985	0.62438	0.25067	0.002
Mof_C 	C 	0.45318	0.62414	0.25777	-0.002
Mof_C 	C 	0.44605	0.62441	0.28455	-0.008
Mof_C 	C 	0.44056	0.6207	0.23134	-0.078
Mof_H 	H 	0.4222	0.6192	0.2299	0.004
Mof_S 	S 	0.48948	0.62334	0.21796	0.083
Mof_C 	C 	0.47786	0.62411	0.22177	-0.069
Mof_H 	H 	0.493	0.6255	0.2113	0.009
Mof_S 	S 	0.42844	0.62304	0.23539	0.1
Mof_C 	C 	0.42283	0.62367	0.30165	-0.047
Mof_H 	H 	0.4061	0.6243	0.2938	-0.01
Mof_S 	S 	0.29184	0.12371	0.91302	0.099
Mof_O 	O 	0.16566	0.12491	0.96262	-0.376
Mof_O 	O 	0.17981	0.11178	0.92279	-0.386
Mof_O 	O 	0.3388	0.12442	0.87992	-0.374
Mof_C 	C 	0.18265	0.11942	0.94598	0.383
Mof_C 	C 	0.2111	0.12206	0.95456	-0.051
Mof_C 	C 	0.25067	0.12438	0.97985	0.002
Mof_C 	C 	0.25777	0.12414	0.95318	-0.002
Mof_C 	C 	0.28455	0.12441	0.94605	-0.008
Mof_C 	C 	0.23134	0.1207	0.94056	-0.078
Mof_H 	H 	0.2299	0.1192	0.9222	0.004
Mof_S 	S 	0.21796	0.12334	0.98948	0.083
Mof_C 	C 	0.22177	0.12411	0.97786	-0.069
Mof_H 	H 	0.2113	0.1255	0.993	0.009
Mof_S 	S 	0.23539	0.12304	0.92844	0.1
Mof_C 	C 	0.30165	0.12367	0.92283	-0.047
Mof_H 	H 	0.2938	0.1243	0.9061	-0.01
Mof_S 	S 	0.29184	0.62371	0.41302	0.099
Mof_O 	O 	0.16566	0.62491	0.46262	-0.376
Mof_O 	O 	0.17981	0.61178	0.42279	-0.386
Mof_O 	O 	0.3388	0.62442	0.37992	-0.374
Mof_C 	C 	0.18265	0.61942	0.44598	0.383
Mof_C 	C 	0.2111	0.62206	0.45456	-0.051
Mof_C 	C 	0.25067	0.62438	0.47985	0.002
Mof_C 	C 	0.25777	0.62414	0.45318	-0.002
Mof_C 	C 	0.28455	0.62441	0.44605	-0.008
Mof_C 	C 	0.23134	0.6207	0.44056	-0.078
Mof_H 	H 	0.2299	0.6192	0.4222	0.004
Mof_S 	S 	0.21796	0.62334	0.48948	0.083
Mof_C 	C 	0.22177	0.62411	0.47786	-0.069
Mof_H 	H 	0.2113	0.6255	0.493	0.009
Mof_S 	S 	0.23539	0.62304	0.42844	0.1
Mof_C 	C 	0.30165	0.62367	0.42283	-0.047
Mof_H 	H 	0.2938	0.6243	0.4061	-0.01
Mof_S 	S 	0.79184	0.12371	0.41302	0.099
Mof_O 	O 	0.66566	0.12491	0.46262	-0.376
Mof_O 	O 	0.67981	0.11178	0.42279	-0.386
Mof_O 	O 	0.8388	0.12442	0.37992	-0.374
Mof_C 	C 	0.68265	0.11942	0.44598	0.383
Mof_C 	C 	0.7111	0.12206	0.45456	-0.051
Mof_C 	C 	0.75067	0.12438	0.47985	0.002
Mof_C 	C 	0.75777	0.12414	0.45318	-0.002
Mof_C 	C 	0.78455	0.12441	0.44605	-0.008
Mof_C 	C 	0.73134	0.1207	0.44056	-0.078
Mof_H 	H 	0.7299	0.1192	0.4222	0.004
Mof_S 	S 	0.71796	0.12334	0.48948	0.083
Mof_C 	C 	0.72177	0.12411	0.47786	-0.069
Mof_H 	H 	0.7113	0.1255	0.493	0.009
Mof_S 	S 	0.73539	0.12304	0.42844	0.1
Mof_C 	C 	0.80165	0.12367	0.42283	-0.047
Mof_H 	H 	0.7938	0.1243	0.4061	-0.01
Mof_S 	S 	0.79184	0.62371	0.91302	0.099
Mof_O 	O 	0.66566	0.62491	0.96262	-0.376
Mof_O 	O 	0.67981	0.61178	0.92279	-0.386
Mof_O 	O 	0.8388	0.62442	0.87992	-0.374
Mof_C 	C 	0.68265	0.61942	0.94598	0.383
Mof_C 	C 	0.7111	0.62206	0.95456	-0.051
Mof_C 	C 	0.75067	0.62438	0.97985	0.002
Mof_C 	C 	0.75777	0.62414	0.95318	-0.002
Mof_C 	C 	0.78455	0.62441	0.94605	-0.008
Mof_C 	C 	0.73134	0.6207	0.94056	-0.078
Mof_H 	H 	0.7299	0.6192	0.9222	0.004
Mof_S 	S 	0.71796	0.62334	0.98948	0.083
Mof_C 	C 	0.72177	0.62411	0.97786	-0.069
Mof_H 	H 	0.7113	0.6255	0.993	0.009
Mof_S 	S 	0.73539	0.62304	0.92844	0.1
Mof_C 	C 	0.80165	0.62367	0.92283	-0.047
Mof_H 	H 	0.7938	0.6243	0.9061	-0.01
Mof_S 	S 	0.95816	0.62629	0.41302	0.099
Mof_O 	O 	0.08434	0.62509	0.46262	-0.376
Mof_O 	O 	0.07019	0.63822	0.42279	-0.386
Mof_O 	O 	0.9112	0.62558	0.37992	-0.374
Mof_C 	C 	0.06735	0.63058	0.44598	0.383
Mof_C 	C 	0.0389	0.62794	0.45456	-0.051
Mof_C 	C 	0.99933	0.62562	0.47985	0.002
Mof_C 	C 	0.99223	0.62586	0.45318	-0.002
Mof_C 	C 	0.96545	0.62559	0.44605	-0.008
Mof_C 	C 	0.01866	0.6293	0.44056	-0.078
Mof_H 	H 	0.0201	0.6308	0.4222	0.004
Mof_S 	S 	0.03204	0.62666	0.48948	0.083
Mof_C 	C 	0.02823	0.62589	0.47786	-0.069
Mof_H 	H 	0.0387	0.6245	0.493	0.009
Mof_S 	S 	0.01461	0.62696	0.42844	0.1
Mof_C 	C 	0.94835	0.62633	0.42283	-0.047
Mof_H 	H 	0.9562	0.6257	0.4061	-0.01
Mof_S 	S 	0.95816	0.12629	0.91302	0.099
Mof_O 	O 	0.08434	0.12509	0.96262	-0.376
Mof_O 	O 	0.07019	0.13822	0.92279	-0.386
Mof_O 	O 	0.9112	0.12558	0.87992	-0.374
Mof_C 	C 	0.06735	0.13058	0.94598	0.383
Mof_C 	C 	0.0389	0.12794	0.95456	-0.051
Mof_C 	C 	0.99933	0.12562	0.97985	0.002
Mof_C 	C 	0.99223	0.12586	0.95318	-0.002
Mof_C 	C 	0.96545	0.12559	0.94605	-0.008
Mof_C 	C 	0.01866	0.1293	0.94056	-0.078
Mof_H 	H 	0.0201	0.1308	0.9222	0.004
Mof_S 	S 	0.03204	0.12666	0.98948	0.083
Mof_C 	C 	0.02823	0.12589	0.97786	-0.069
Mof_H 	H 	0.0387	0.1245	0.993	0.009
Mof_S 	S 	0.01461	0.12696	0.92844	0.1
Mof_C 	C 	0.94835	0.12633	0.92283	-0.047
Mof_H 	H 	0.9562	0.1257	0.9061	-0.01
Mof_S 	S 	0.45816	0.62629	0.91302	0.099
Mof_O 	O 	0.58434	0.62509	0.96262	-0.376
Mof_O 	O 	0.57019	0.63822	0.92279	-0.386
Mof_O 	O 	0.4112	0.62558	0.87992	-0.374
Mof_C 	C 	0.56735	0.63058	0.94598	0.383
Mof_C 	C 	0.5389	0.62794	0.95456	-0.051
Mof_C 	C 	0.49933	0.62562	0.97985	0.002
Mof_C 	C 	0.49223	0.62586	0.95318	-0.002
Mof_C 	C 	0.46545	0.62559	0.94605	-0.008
Mof_C 	C 	0.51866	0.6293	0.94056	-0.078
Mof_H 	H 	0.5201	0.6308	0.9222	0.004
Mof_S 	S 	0.53204	0.62666	0.98948	0.083
Mof_C 	C 	0.52823	0.62589	0.97786	-0.069
Mof_H 	H 	0.5387	0.6245	0.993	0.009
Mof_S 	S 	0.51461	0.62696	0.92844	0.1
Mof_C 	C 	0.44835	0.62633	0.92283	-0.047
Mof_H 	H 	0.4562	0.6257	0.9061	-0.01
Mof_S 	S 	0.45816	0.12629	0.41302	0.099
Mof_O 	O 	0.58434	0.12509	0.46262	-0.376
Mof_O 	O 	0.57019	0.13822	0.42279	-0.386
Mof_O 	O 	0.4112	0.12558	0.37992	-0.374
Mof_C 	C 	0.56735	0.13058	0.44598	0.383
Mof_C 	C 	0.5389	0.12794	0.45456	-0.051
Mof_C 	C 	0.49933	0.12562	0.47985	0.002
Mof_C 	C 	0.49223	0.12586	0.45318	-0.002
Mof_C 	C 	0.46545	0.12559	0.44605	-0.008
Mof_C 	C 	0.51866	0.1293	0.44056	-0.078
Mof_H 	H 	0.5201	0.1308	0.4222	0.004
Mof_S 	S 	0.53204	0.12666	0.48948	0.083
Mof_C 	C 	0.52823	0.12589	0.47786	-0.069
Mof_H 	H 	0.5387	0.1245	0.493	0.009
Mof_S 	S 	0.51461	0.12696	0.42844	0.1
Mof_C 	C 	0.44835	0.12633	0.42283	-0.047
Mof_H 	H 	0.4562	0.1257	0.4061	-0.01
Mof_S 	S 	0.45816	0.62371	0.33698	0.099
Mof_O 	O 	0.58434	0.62491	0.28738	-0.376
Mof_O 	O 	0.57019	0.61178	0.32721	-0.386
Mof_O 	O 	0.4112	0.62442	0.37008	-0.374
Mof_C 	C 	0.56735	0.61942	0.30402	0.383
Mof_C 	C 	0.5389	0.62206	0.29544	-0.051
Mof_C 	C 	0.49933	0.62438	0.27015	0.002
Mof_C 	C 	0.49223	0.62414	0.29682	-0.002
Mof_C 	C 	0.46545	0.62441	0.30395	-0.008
Mof_C 	C 	0.51866	0.6207	0.30944	-0.078
Mof_H 	H 	0.5201	0.6192	0.3278	0.004
Mof_S 	S 	0.53204	0.62334	0.26052	0.083
Mof_C 	C 	0.52823	0.62411	0.27214	-0.069
Mof_H 	H 	0.5387	0.6255	0.257	0.009
Mof_S 	S 	0.51461	0.62304	0.32156	0.1
Mof_C 	C 	0.44835	0.62367	0.32717	-0.047
Mof_H 	H 	0.4562	0.6243	0.3439	-0.01
Mof_S 	S 	0.45816	0.12371	0.83698	0.099
Mof_O 	O 	0.58434	0.12491	0.78738	-0.376
Mof_O 	O 	0.57019	0.11178	0.82721	-0.386
Mof_O 	O 	0.4112	0.12442	0.87008	-0.374
Mof_C 	C 	0.56735	0.11942	0.80402	0.383
Mof_C 	C 	0.5389	0.12206	0.79544	-0.051
Mof_C 	C 	0.49933	0.12438	0.77015	0.002
Mof_C 	C 	0.49223	0.12414	0.79682	-0.002
Mof_C 	C 	0.46545	0.12441	0.80395	-0.008
Mof_C 	C 	0.51866	0.1207	0.80944	-0.078
Mof_H 	H 	0.5201	0.1192	0.8278	0.004
Mof_S 	S 	0.53204	0.12334	0.76052	0.083
Mof_C 	C 	0.52823	0.12411	0.77214	-0.069
Mof_H 	H 	0.5387	0.1255	0.757	0.009
Mof_S 	S 	0.51461	0.12304	0.82156	0.1
Mof_C 	C 	0.44835	0.12367	0.82717	-0.047
Mof_H 	H 	0.4562	0.1243	0.8439	-0.01
Mof_S 	S 	0.95816	0.62371	0.83698	0.099
Mof_O 	O 	0.08434	0.62491	0.78738	-0.376
Mof_O 	O 	0.07019	0.61178	0.82721	-0.386
Mof_O 	O 	0.9112	0.62442	0.87008	-0.374
Mof_C 	C 	0.06735	0.61942	0.80402	0.383
Mof_C 	C 	0.0389	0.62206	0.79544	-0.051
Mof_C 	C 	0.99933	0.62438	0.77015	0.002
Mof_C 	C 	0.99223	0.62414	0.79682	-0.002
Mof_C 	C 	0.96545	0.62441	0.80395	-0.008
Mof_C 	C 	0.01866	0.6207	0.80944	-0.078
Mof_H 	H 	0.0201	0.6192	0.8278	0.004
Mof_S 	S 	0.03204	0.62334	0.76052	0.083
Mof_C 	C 	0.02823	0.62411	0.77214	-0.069
Mof_H 	H 	0.0387	0.6255	0.757	0.009
Mof_S 	S 	0.01461	0.62304	0.82156	0.1
Mof_C 	C 	0.94835	0.62367	0.82717	-0.047
Mof_H 	H 	0.9562	0.6243	0.8439	-0.01
Mof_S 	S 	0.95816	0.12371	0.33698	0.099
Mof_O 	O 	0.08434	0.12491	0.28738	-0.376
Mof_O 	O 	0.07019	0.11178	0.32721	-0.386
Mof_O 	O 	0.9112	0.12442	0.37008	-0.374
Mof_C 	C 	0.06735	0.11942	0.30402	0.383
Mof_C 	C 	0.0389	0.12206	0.29544	-0.051
Mof_C 	C 	0.99933	0.12438	0.27015	0.002
Mof_C 	C 	0.99223	0.12414	0.29682	-0.002
Mof_C 	C 	0.96545	0.12441	0.30395	-0.008
Mof_C 	C 	0.01866	0.1207	0.30944	-0.078
Mof_H 	H 	0.0201	0.1192	0.3278	0.004
Mof_S 	S 	0.03204	0.12334	0.26052	0.083
Mof_C 	C 	0.02823	0.12411	0.27214	-0.069
Mof_H 	H 	0.0387	0.1255	0.257	0.009
Mof_S 	S 	0.01461	0.12304	0.32156	0.1
Mof_C 	C 	0.94835	0.12367	0.32717	-0.047
Mof_H 	H 	0.9562	0.1243	0.3439	-0.01
Mof_S 	S 	0.79184	0.12629	0.83698	0.099
Mof_O 	O 	0.66566	0.12509	0.78738	-0.376
Mof_O 	O 	0.67981	0.13822	0.82721	-0.386
Mof_O 	O 	0.8388	0.12558	0.87008	-0.374
Mof_C 	C 	0.68265	0.13058	0.80402	0.383
Mof_C 	C 	0.7111	0.12794	0.79544	-0.051
Mof_C 	C 	0.75067	0.12562	0.77015	0.002
Mof_C 	C 	0.75777	0.12586	0.79682	-0.002
Mof_C 	C 	0.78455	0.12559	0.80395	-0.008
Mof_C 	C 	0.73134	0.1293	0.80944	-0.078
Mof_H 	H 	0.7299	0.1308	0.8278	0.004
Mof_S 	S 	0.71796	0.12666	0.76052	0.083
Mof_C 	C 	0.72177	0.12589	0.77214	-0.069
Mof_H 	H 	0.7113	0.1245	0.757	0.009
Mof_S 	S 	0.73539	0.12696	0.82156	0.1
Mof_C 	C 	0.80165	0.12633	0.82717	-0.047
Mof_H 	H 	0.7938	0.1257	0.8439	-0.01
Mof_S 	S 	0.79184	0.62629	0.33698	0.099
Mof_O 	O 	0.66566	0.62509	0.28738	-0.376
Mof_O 	O 	0.67981	0.63822	0.32721	-0.386
Mof_O 	O 	0.8388	0.62558	0.37008	-0.374
Mof_C 	C 	0.68265	0.63058	0.30402	0.383
Mof_C 	C 	0.7111	0.62794	0.29544	-0.051
Mof_C 	C 	0.75067	0.62562	0.27015	0.002
Mof_C 	C 	0.75777	0.62586	0.29682	-0.002
Mof_C 	C 	0.78455	0.62559	0.30395	-0.008
Mof_C 	C 	0.73134	0.6293	0.30944	-0.078
Mof_H 	H 	0.7299	0.6308	0.3278	0.004
Mof_S 	S 	0.71796	0.62666	0.26052	0.083
Mof_C 	C 	0.72177	0.62589	0.27214	-0.069
Mof_H 	H 	0.7113	0.6245	0.257	0.009
Mof_S 	S 	0.73539	0.62696	0.32156	0.1
Mof_C 	C 	0.80165	0.62633	0.32717	-0.047
Mof_H 	H 	0.7938	0.6257	0.3439	-0.01
Mof_S 	S 	0.29184	0.12629	0.33698	0.099
Mof_O 	O 	0.16566	0.12509	0.28738	-0.376
Mof_O 	O 	0.17981	0.13822	0.32721	-0.386
Mof_O 	O 	0.3388	0.12558	0.37008	-0.374
Mof_C 	C 	0.18265	0.13058	0.30402	0.383
Mof_C 	C 	0.2111	0.12794	0.29544	-0.051
Mof_C 	C 	0.25067	0.12562	0.27015	0.002
Mof_C 	C 	0.25777	0.12586	0.29682	-0.002
Mof_C 	C 	0.28455	0.12559	0.30395	-0.008
Mof_C 	C 	0.23134	0.1293	0.30944	-0.078
Mof_H 	H 	0.2299	0.1308	0.3278	0.004
Mof_S 	S 	0.21796	0.12666	0.26052	0.083
Mof_C 	C 	0.22177	0.12589	0.27214	-0.069
Mof_H 	H 	0.2113	0.1245	0.257	0.009
Mof_S 	S 	0.23539	0.12696	0.32156	0.1
Mof_C 	C 	0.30165	0.12633	0.32717	-0.047
Mof_H 	H 	0.2938	0.1257	0.3439	-0.01
Mof_S 	S 	0.29184	0.62629	0.83698	0.099
Mof_O 	O 	0.16566	0.62509	0.78738	-0.376
Mof_O 	O 	0.17981	0.63822	0.82721	-0.386
Mof_O 	O 	0.3388	0.62558	0.87008	-0.374
Mof_C 	C 	0.18265	0.63058	0.80402	0.383
Mof_C 	C 	0.2111	0.62794	0.79544	-0.051
Mof_C 	C 	0.25067	0.62562	0.77015	0.002
Mof_C 	C 	0.25777	0.62586	0.79682	-0.002
Mof_C 	C 	0.28455	0.62559	0.80395	-0.008
Mof_C 	C 	0.23134	0.6293	0.80944	-0.078
Mof_H 	H 	0.2299	0.6308	0.8278	0.004
Mof_S 	S 	0.21796	0.62666	0.76052	0.083
Mof_C 	C 	0.22177	0.62589	0.77214	-0.069
Mof_H 	H 	0.2113	0.6245	0.757	0.009
Mof_S 	S 	0.23539	0.62696	0.82156	0.1
Mof_C 	C 	0.30165	0.62633	0.82717	-0.047
Mof_H 	H 	0.2938	0.6257	0.8439	-0.01
Mof_S 	S 	0.91302	0.29184	0.12371	0.099
Mof_O 	O 	0.96262	0.16566	0.12491	-0.376
Mof_O 	O 	0.92279	0.17981	0.11178	-0.386
Mof_O 	O 	0.87992	0.3388	0.12442	-0.374
Mof_C 	C 	0.94598	0.18265	0.11942	0.383
Mof_C 	C 	0.95456	0.2111	0.12206	-0.051
Mof_C 	C 	0.97985	0.25067	0.12438	0.002
Mof_C 	C 	0.95318	0.25777	0.12414	-0.002
Mof_C 	C 	0.94605	0.28455	0.12441	-0.008
Mof_C 	C 	0.94056	0.23134	0.1207	-0.078
Mof_H 	H 	0.9222	0.2299	0.1192	0.004
Mof_S 	S 	0.98948	0.21796	0.12334	0.083
Mof_C 	C 	0.97786	0.22177	0.12411	-0.069
Mof_H 	H 	0.993	0.2113	0.1255	0.009
Mof_S 	S 	0.92844	0.23539	0.12304	0.1
Mof_C 	C 	0.92283	0.30165	0.12367	-0.047
Mof_H 	H 	0.9061	0.2938	0.1243	-0.01
Mof_S 	S 	0.91302	0.79184	0.62371	0.099
Mof_O 	O 	0.96262	0.66566	0.62491	-0.376
Mof_O 	O 	0.92279	0.67981	0.61178	-0.386
Mof_O 	O 	0.87992	0.8388	0.62442	-0.374
Mof_C 	C 	0.94598	0.68265	0.61942	0.383
Mof_C 	C 	0.95456	0.7111	0.62206	-0.051
Mof_C 	C 	0.97985	0.75067	0.62438	0.002
Mof_C 	C 	0.95318	0.75777	0.62414	-0.002
Mof_C 	C 	0.94605	0.78455	0.62441	-0.008
Mof_C 	C 	0.94056	0.73134	0.6207	-0.078
Mof_H 	H 	0.9222	0.7299	0.6192	0.004
Mof_S 	S 	0.98948	0.71796	0.62334	0.083
Mof_C 	C 	0.97786	0.72177	0.62411	-0.069
Mof_H 	H 	0.993	0.7113	0.6255	0.009
Mof_S 	S 	0.92844	0.73539	0.62304	0.1
Mof_C 	C 	0.92283	0.80165	0.62367	-0.047
Mof_H 	H 	0.9061	0.7938	0.6243	-0.01
Mof_S 	S 	0.41302	0.29184	0.62371	0.099
Mof_O 	O 	0.46262	0.16566	0.62491	-0.376
Mof_O 	O 	0.42279	0.17981	0.61178	-0.386
Mof_O 	O 	0.37992	0.3388	0.62442	-0.374
Mof_C 	C 	0.44598	0.18265	0.61942	0.383
Mof_C 	C 	0.45456	0.2111	0.62206	-0.051
Mof_C 	C 	0.47985	0.25067	0.62438	0.002
Mof_C 	C 	0.45318	0.25777	0.62414	-0.002
Mof_C 	C 	0.44605	0.28455	0.62441	-0.008
Mof_C 	C 	0.44056	0.23134	0.6207	-0.078
Mof_H 	H 	0.4222	0.2299	0.6192	0.004
Mof_S 	S 	0.48948	0.21796	0.62334	0.083
Mof_C 	C 	0.47786	0.22177	0.62411	-0.069
Mof_H 	H 	0.493	0.2113	0.6255	0.009
Mof_S 	S 	0.42844	0.23539	0.62304	0.1
Mof_C 	C 	0.42283	0.30165	0.62367	-0.047
Mof_H 	H 	0.4061	0.2938	0.6243	-0.01
Mof_S 	S 	0.41302	0.79184	0.12371	0.099
Mof_O 	O 	0.46262	0.66566	0.12491	-0.376
Mof_O 	O 	0.42279	0.67981	0.11178	-0.386
Mof_O 	O 	0.37992	0.8388	0.12442	-0.374
Mof_C 	C 	0.44598	0.68265	0.11942	0.383
Mof_C 	C 	0.45456	0.7111	0.12206	-0.051
Mof_C 	C 	0.47985	0.75067	0.12438	0.002
Mof_C 	C 	0.45318	0.75777	0.12414	-0.002
Mof_C 	C 	0.44605	0.78455	0.12441	-0.008
Mof_C 	C 	0.44056	0.73134	0.1207	-0.078
Mof_H 	H 	0.4222	0.7299	0.1192	0.004
Mof_S 	S 	0.48948	0.71796	0.12334	0.083
Mof_C 	C 	0.47786	0.72177	0.12411	-0.069
Mof_H 	H 	0.493	0.7113	0.1255	0.009
Mof_S 	S 	0.42844	0.73539	0.12304	0.1
Mof_C 	C 	0.42283	0.80165	0.12367	-0.047
Mof_H 	H 	0.4061	0.7938	0.1243	-0.01
Mof_S 	S 	0.41302	0.95816	0.62629	0.099
Mof_O 	O 	0.46262	0.08434	0.62509	-0.376
Mof_O 	O 	0.42279	0.07019	0.63822	-0.386
Mof_O 	O 	0.37992	0.9112	0.62558	-0.374
Mof_C 	C 	0.44598	0.06735	0.63058	0.383
Mof_C 	C 	0.45456	0.0389	0.62794	-0.051
Mof_C 	C 	0.47985	0.99933	0.62562	0.002
Mof_C 	C 	0.45318	0.99223	0.62586	-0.002
Mof_C 	C 	0.44605	0.96545	0.62559	-0.008
Mof_C 	C 	0.44056	0.01866	0.6293	-0.078
Mof_H 	H 	0.4222	0.0201	0.6308	0.004
Mof_S 	S 	0.48948	0.03204	0.62666	0.083
Mof_C 	C 	0.47786	0.02823	0.62589	-0.069
Mof_H 	H 	0.493	0.0387	0.6245	0.009
Mof_S 	S 	0.42844	0.01461	0.62696	0.1
Mof_C 	C 	0.42283	0.94835	0.62633	-0.047
Mof_H 	H 	0.4061	0.9562	0.6257	-0.01
Mof_S 	S 	0.41302	0.45816	0.12629	0.099
Mof_O 	O 	0.46262	0.58434	0.12509	-0.376
Mof_O 	O 	0.42279	0.57019	0.13822	-0.386
Mof_O 	O 	0.37992	0.4112	0.12558	-0.374
Mof_C 	C 	0.44598	0.56735	0.13058	0.383
Mof_C 	C 	0.45456	0.5389	0.12794	-0.051
Mof_C 	C 	0.47985	0.49933	0.12562	0.002
Mof_C 	C 	0.45318	0.49223	0.12586	-0.002
Mof_C 	C 	0.44605	0.46545	0.12559	-0.008
Mof_C 	C 	0.44056	0.51866	0.1293	-0.078
Mof_H 	H 	0.4222	0.5201	0.1308	0.004
Mof_S 	S 	0.48948	0.53204	0.12666	0.083
Mof_C 	C 	0.47786	0.52823	0.12589	-0.069
Mof_H 	H 	0.493	0.5387	0.1245	0.009
Mof_S 	S 	0.42844	0.51461	0.12696	0.1
Mof_C 	C 	0.42283	0.44835	0.12633	-0.047
Mof_H 	H 	0.4061	0.4562	0.1257	-0.01
Mof_S 	S 	0.91302	0.95816	0.12629	0.099
Mof_O 	O 	0.96262	0.08434	0.12509	-0.376
Mof_O 	O 	0.92279	0.07019	0.13822	-0.386
Mof_O 	O 	0.87992	0.9112	0.12558	-0.374
Mof_C 	C 	0.94598	0.06735	0.13058	0.383
Mof_C 	C 	0.95456	0.0389	0.12794	-0.051
Mof_C 	C 	0.97985	0.99933	0.12562	0.002
Mof_C 	C 	0.95318	0.99223	0.12586	-0.002
Mof_C 	C 	0.94605	0.96545	0.12559	-0.008
Mof_C 	C 	0.94056	0.01866	0.1293	-0.078
Mof_H 	H 	0.9222	0.0201	0.1308	0.004
Mof_S 	S 	0.98948	0.03204	0.12666	0.083
Mof_C 	C 	0.97786	0.02823	0.12589	-0.069
Mof_H 	H 	0.993	0.0387	0.1245	0.009
Mof_S 	S 	0.92844	0.01461	0.12696	0.1
Mof_C 	C 	0.92283	0.94835	0.12633	-0.047
Mof_H 	H 	0.9061	0.9562	0.1257	-0.01
Mof_S 	S 	0.91302	0.45816	0.62629	0.099
Mof_O 	O 	0.96262	0.58434	0.62509	-0.376
Mof_O 	O 	0.92279	0.57019	0.63822	-0.386
Mof_O 	O 	0.87992	0.4112	0.62558	-0.374
Mof_C 	C 	0.94598	0.56735	0.63058	0.383
Mof_C 	C 	0.95456	0.5389	0.62794	-0.051
Mof_C 	C 	0.97985	0.49933	0.62562	0.002
Mof_C 	C 	0.95318	0.49223	0.62586	-0.002
Mof_C 	C 	0.94605	0.46545	0.62559	-0.008
Mof_C 	C 	0.94056	0.51866	0.6293	-0.078
Mof_H 	H 	0.9222	0.5201	0.6308	0.004
Mof_S 	S 	0.98948	0.53204	0.62666	0.083
Mof_C 	C 	0.97786	0.52823	0.62589	-0.069
Mof_H 	H 	0.993	0.5387	0.6245	0.009
Mof_S 	S 	0.92844	0.51461	0.62696	0.1
Mof_C 	C 	0.92283	0.44835	0.62633	-0.047
Mof_H 	H 	0.9061	0.4562	0.6257	-0.01
Mof_S 	S 	0.33698	0.45816	0.62371	0.099
Mof_O 	O 	0.28738	0.58434	0.62491	-0.376
Mof_O 	O 	0.32721	0.57019	0.61178	-0.386
Mof_O 	O 	0.37008	0.4112	0.62442	-0.374
Mof_C 	C 	0.30402	0.56735	0.61942	0.383
Mof_C 	C 	0.29544	0.5389	0.62206	-0.051
Mof_C 	C 	0.27015	0.49933	0.62438	0.002
Mof_C 	C 	0.29682	0.49223	0.62414	-0.002
Mof_C 	C 	0.30395	0.46545	0.62441	-0.008
Mof_C 	C 	0.30944	0.51866	0.6207	-0.078
Mof_H 	H 	0.3278	0.5201	0.6192	0.004
Mof_S 	S 	0.26052	0.53204	0.62334	0.083
Mof_C 	C 	0.27214	0.52823	0.62411	-0.069
Mof_H 	H 	0.257	0.5387	0.6255	0.009
Mof_S 	S 	0.32156	0.51461	0.62304	0.1
Mof_C 	C 	0.32717	0.44835	0.62367	-0.047
Mof_H 	H 	0.3439	0.4562	0.6243	-0.01
Mof_S 	S 	0.33698	0.95816	0.12371	0.099
Mof_O 	O 	0.28738	0.08434	0.12491	-0.376
Mof_O 	O 	0.32721	0.07019	0.11178	-0.386
Mof_O 	O 	0.37008	0.9112	0.12442	-0.374
Mof_C 	C 	0.30402	0.06735	0.11942	0.383
Mof_C 	C 	0.29544	0.0389	0.12206	-0.051
Mof_C 	C 	0.27015	0.99933	0.12438	0.002
Mof_C 	C 	0.29682	0.99223	0.12414	-0.002
Mof_C 	C 	0.30395	0.96545	0.12441	-0.008
Mof_C 	C 	0.30944	0.01866	0.1207	-0.078
Mof_H 	H 	0.3278	0.0201	0.1192	0.004
Mof_S 	S 	0.26052	0.03204	0.12334	0.083
Mof_C 	C 	0.27214	0.02823	0.12411	-0.069
Mof_H 	H 	0.257	0.0387	0.1255	0.009
Mof_S 	S 	0.32156	0.01461	0.12304	0.1
Mof_C 	C 	0.32717	0.94835	0.12367	-0.047
Mof_H 	H 	0.3439	0.9562	0.1243	-0.01
Mof_S 	S 	0.83698	0.45816	0.12371	0.099
Mof_O 	O 	0.78738	0.58434	0.12491	-0.376
Mof_O 	O 	0.82721	0.57019	0.11178	-0.386
Mof_O 	O 	0.87008	0.4112	0.12442	-0.374
Mof_C 	C 	0.80402	0.56735	0.11942	0.383
Mof_C 	C 	0.79544	0.5389	0.12206	-0.051
Mof_C 	C 	0.77015	0.49933	0.12438	0.002
Mof_C 	C 	0.79682	0.49223	0.12414	-0.002
Mof_C 	C 	0.80395	0.46545	0.12441	-0.008
Mof_C 	C 	0.80944	0.51866	0.1207	-0.078
Mof_H 	H 	0.8278	0.5201	0.1192	0.004
Mof_S 	S 	0.76052	0.53204	0.12334	0.083
Mof_C 	C 	0.77214	0.52823	0.12411	-0.069
Mof_H 	H 	0.757	0.5387	0.1255	0.009
Mof_S 	S 	0.82156	0.51461	0.12304	0.1
Mof_C 	C 	0.82717	0.44835	0.12367	-0.047
Mof_H 	H 	0.8439	0.4562	0.1243	-0.01
Mof_S 	S 	0.83698	0.95816	0.62371	0.099
Mof_O 	O 	0.78738	0.08434	0.62491	-0.376
Mof_O 	O 	0.82721	0.07019	0.61178	-0.386
Mof_O 	O 	0.87008	0.9112	0.62442	-0.374
Mof_C 	C 	0.80402	0.06735	0.61942	0.383
Mof_C 	C 	0.79544	0.0389	0.62206	-0.051
Mof_C 	C 	0.77015	0.99933	0.62438	0.002
Mof_C 	C 	0.79682	0.99223	0.62414	-0.002
Mof_C 	C 	0.80395	0.96545	0.62441	-0.008
Mof_C 	C 	0.80944	0.01866	0.6207	-0.078
Mof_H 	H 	0.8278	0.0201	0.6192	0.004
Mof_S 	S 	0.76052	0.03204	0.62334	0.083
Mof_C 	C 	0.77214	0.02823	0.62411	-0.069
Mof_H 	H 	0.757	0.0387	0.6255	0.009
Mof_S 	S 	0.82156	0.01461	0.62304	0.1
Mof_C 	C 	0.82717	0.94835	0.62367	-0.047
Mof_H 	H 	0.8439	0.9562	0.6243	-0.01
Mof_S 	S 	0.83698	0.79184	0.12629	0.099
Mof_O 	O 	0.78738	0.66566	0.12509	-0.376
Mof_O 	O 	0.82721	0.67981	0.13822	-0.386
Mof_O 	O 	0.87008	0.8388	0.12558	-0.374
Mof_C 	C 	0.80402	0.68265	0.13058	0.383
Mof_C 	C 	0.79544	0.7111	0.12794	-0.051
Mof_C 	C 	0.77015	0.75067	0.12562	0.002
Mof_C 	C 	0.79682	0.75777	0.12586	-0.002
Mof_C 	C 	0.80395	0.78455	0.12559	-0.008
Mof_C 	C 	0.80944	0.73134	0.1293	-0.078
Mof_H 	H 	0.8278	0.7299	0.1308	0.004
Mof_S 	S 	0.76052	0.71796	0.12666	0.083
Mof_C 	C 	0.77214	0.72177	0.12589	-0.069
Mof_H 	H 	0.757	0.7113	0.1245	0.009
Mof_S 	S 	0.82156	0.73539	0.12696	0.1
Mof_C 	C 	0.82717	0.80165	0.12633	-0.047
Mof_H 	H 	0.8439	0.7938	0.1257	-0.01
Mof_S 	S 	0.83698	0.29184	0.62629	0.099
Mof_O 	O 	0.78738	0.16566	0.62509	-0.376
Mof_O 	O 	0.82721	0.17981	0.63822	-0.386
Mof_O 	O 	0.87008	0.3388	0.62558	-0.374
Mof_C 	C 	0.80402	0.18265	0.63058	0.383
Mof_C 	C 	0.79544	0.2111	0.62794	-0.051
Mof_C 	C 	0.77015	0.25067	0.62562	0.002
Mof_C 	C 	0.79682	0.25777	0.62586	-0.002
Mof_C 	C 	0.80395	0.28455	0.62559	-0.008
Mof_C 	C 	0.80944	0.23134	0.6293	-0.078
Mof_H 	H 	0.8278	0.2299	0.6308	0.004
Mof_S 	S 	0.76052	0.21796	0.62666	0.083
Mof_C 	C 	0.77214	0.22177	0.62589	-0.069
Mof_H 	H 	0.757	0.2113	0.6245	0.009
Mof_S 	S 	0.82156	0.23539	0.62696	0.1
Mof_C 	C 	0.82717	0.30165	0.62633	-0.047
Mof_H 	H 	0.8439	0.2938	0.6257	-0.01
Mof_S 	S 	0.33698	0.79184	0.62629	0.099
Mof_O 	O 	0.28738	0.66566	0.62509	-0.376
Mof_O 	O 	0.32721	0.67981	0.63822	-0.386
Mof_O 	O 	0.37008	0.8388	0.62558	-0.374
Mof_C 	C 	0.30402	0.68265	0.63058	0.383
Mof_C 	C 	0.29544	0.7111	0.62794	-0.051
Mof_C 	C 	0.27015	0.75067	0.62562	0.002
Mof_C 	C 	0.29682	0.75777	0.62586	-0.002
Mof_C 	C 	0.30395	0.78455	0.62559	-0.008
Mof_C 	C 	0.30944	0.73134	0.6293	-0.078
Mof_H 	H 	0.3278	0.7299	0.6308	0.004
Mof_S 	S 	0.26052	0.71796	0.62666	0.083
Mof_C 	C 	0.27214	0.72177	0.62589	-0.069
Mof_H 	H 	0.257	0.7113	0.6245	0.009
Mof_S 	S 	0.32156	0.73539	0.62696	0.1
Mof_C 	C 	0.32717	0.80165	0.62633	-0.047
Mof_H 	H 	0.3439	0.7938	0.6257	-0.01
Mof_S 	S 	0.33698	0.29184	0.12629	0.099
Mof_O 	O 	0.28738	0.16566	0.12509	-0.376
Mof_O 	O 	0.32721	0.17981	0.13822	-0.386
Mof_O 	O 	0.37008	0.3388	0.12558	-0.374
Mof_C 	C 	0.30402	0.18265	0.13058	0.383
Mof_C 	C 	0.29544	0.2111	0.12794	-0.051
Mof_C 	C 	0.27015	0.25067	0.12562	0.002
Mof_C 	C 	0.29682	0.25777	0.12586	-0.002
Mof_C 	C 	0.30395	0.28455	0.12559	-0.008
Mof_C 	C 	0.30944	0.23134	0.1293	-0.078
Mof_H 	H 	0.3278	0.2299	0.1308	0.004
Mof_S 	S 	0.26052	0.21796	0.12666	0.083
Mof_C 	C 	0.27214	0.22177	0.12589	-0.069
Mof_H 	H 	0.257	0.2113	0.1245	0.009
Mof_S 	S 	0.32156	0.23539	0.12696	0.1
Mof_C 	C 	0.32717	0.30165	0.12633	-0.047
Mof_H 	H 	0.3439	0.2938	0.1257	-0.01
Mof_S 	S 	0.12371	0.91302	0.29184	0.099
Mof_O 	O 	0.12491	0.96262	0.16566	-0.376
Mof_O 	O 	0.11178	0.92279	0.17981	-0.386
Mof_O 	O 	0.12442	0.87992	0.3388	-0.374
Mof_C 	C 	0.11942	0.94598	0.18265	0.383
Mof_C 	C 	0.12206	0.95456	0.2111	-0.051
Mof_C 	C 	0.12438	0.97985	0.25067	0.002
Mof_C 	C 	0.12414	0.95318	0.25777	-0.002
Mof_C 	C 	0.12441	0.94605	0.28455	-0.008
Mof_C 	C 	0.1207	0.94056	0.23134	-0.078
Mof_H 	H 	0.1192	0.9222	0.2299	0.004
Mof_S 	S 	0.12334	0.98948	0.21796	0.083
Mof_C 	C 	0.12411	0.97786	0.22177	-0.069
Mof_H 	H 	0.1255	0.993	0.2113	0.009
Mof_S 	S 	0.12304	0.92844	0.23539	0.1
Mof_C 	C 	0.12367	0.92283	0.30165	-0.047
Mof_H 	H 	0.1243	0.9061	0.2938	-0.01
Mof_S 	S 	0.12371	0.41302	0.79184	0.099
Mof_O 	O 	0.12491	0.46262	0.66566	-0.376
Mof_O 	O 	0.11178	0.42279	0.67981	-0.386
Mof_O 	O 	0.12442	0.37992	0.8388	-0.374
Mof_C 	C 	0.11942	0.44598	0.68265	0.383
Mof_C 	C 	0.12206	0.45456	0.7111	-0.051
Mof_C 	C 	0.12438	0.47985	0.75067	0.002
Mof_C 	C 	0.12414	0.45318	0.75777	-0.002
Mof_C 	C 	0.12441	0.44605	0.78455	-0.008
Mof_C 	C 	0.1207	0.44056	0.73134	-0.078
Mof_H 	H 	0.1192	0.4222	0.7299	0.004
Mof_S 	S 	0.12334	0.48948	0.71796	0.083
Mof_C 	C 	0.12411	0.47786	0.72177	-0.069
Mof_H 	H 	0.1255	0.493	0.7113	0.009
Mof_S 	S 	0.12304	0.42844	0.73539	0.1
Mof_C 	C 	0.12367	0.42283	0.80165	-0.047
Mof_H 	H 	0.1243	0.4061	0.7938	-0.01
Mof_S 	S 	0.62371	0.91302	0.79184	0.099
Mof_O 	O 	0.62491	0.96262	0.66566	-0.376
Mof_O 	O 	0.61178	0.92279	0.67981	-0.386
Mof_O 	O 	0.62442	0.87992	0.8388	-0.374
Mof_C 	C 	0.61942	0.94598	0.68265	0.383
Mof_C 	C 	0.62206	0.95456	0.7111	-0.051
Mof_C 	C 	0.62438	0.97985	0.75067	0.002
Mof_C 	C 	0.62414	0.95318	0.75777	-0.002
Mof_C 	C 	0.62441	0.94605	0.78455	-0.008
Mof_C 	C 	0.6207	0.94056	0.73134	-0.078
Mof_H 	H 	0.6192	0.9222	0.7299	0.004
Mof_S 	S 	0.62334	0.98948	0.71796	0.083
Mof_C 	C 	0.62411	0.97786	0.72177	-0.069
Mof_H 	H 	0.6255	0.993	0.7113	0.009
Mof_S 	S 	0.62304	0.92844	0.73539	0.1
Mof_C 	C 	0.62367	0.92283	0.80165	-0.047
Mof_H 	H 	0.6243	0.9061	0.7938	-0.01
Mof_S 	S 	0.62371	0.41302	0.29184	0.099
Mof_O 	O 	0.62491	0.46262	0.16566	-0.376
Mof_O 	O 	0.61178	0.42279	0.17981	-0.386
Mof_O 	O 	0.62442	0.37992	0.3388	-0.374
Mof_C 	C 	0.61942	0.44598	0.18265	0.383
Mof_C 	C 	0.62206	0.45456	0.2111	-0.051
Mof_C 	C 	0.62438	0.47985	0.25067	0.002
Mof_C 	C 	0.62414	0.45318	0.25777	-0.002
Mof_C 	C 	0.62441	0.44605	0.28455	-0.008
Mof_C 	C 	0.6207	0.44056	0.23134	-0.078
Mof_H 	H 	0.6192	0.4222	0.2299	0.004
Mof_S 	S 	0.62334	0.48948	0.21796	0.083
Mof_C 	C 	0.62411	0.47786	0.22177	-0.069
Mof_H 	H 	0.6255	0.493	0.2113	0.009
Mof_S 	S 	0.62304	0.42844	0.23539	0.1
Mof_C 	C 	0.62367	0.42283	0.30165	-0.047
Mof_H 	H 	0.6243	0.4061	0.2938	-0.01
Mof_S 	S 	0.62629	0.41302	0.95816	0.099
Mof_O 	O 	0.62509	0.46262	0.08434	-0.376
Mof_O 	O 	0.63822	0.42279	0.07019	-0.386
Mof_O 	O 	0.62558	0.37992	0.9112	-0.374
Mof_C 	C 	0.63058	0.44598	0.06735	0.383
Mof_C 	C 	0.62794	0.45456	0.0389	-0.051
Mof_C 	C 	0.62562	0.47985	0.99933	0.002
Mof_C 	C 	0.62586	0.45318	0.99223	-0.002
Mof_C 	C 	0.62559	0.44605	0.96545	-0.008
Mof_C 	C 	0.6293	0.44056	0.01866	-0.078
Mof_H 	H 	0.6308	0.4222	0.0201	0.004
Mof_S 	S 	0.62666	0.48948	0.03204	0.083
Mof_C 	C 	0.62589	0.47786	0.02823	-0.069
Mof_H 	H 	0.6245	0.493	0.0387	0.009
Mof_S 	S 	0.62696	0.42844	0.01461	0.1
Mof_C 	C 	0.62633	0.42283	0.94835	-0.047
Mof_H 	H 	0.6257	0.4061	0.9562	-0.01
Mof_S 	S 	0.62629	0.91302	0.45816	0.099
Mof_O 	O 	0.62509	0.96262	0.58434	-0.376
Mof_O 	O 	0.63822	0.92279	0.57019	-0.386
Mof_O 	O 	0.62558	0.87992	0.4112	-0.374
Mof_C 	C 	0.63058	0.94598	0.56735	0.383
Mof_C 	C 	0.62794	0.95456	0.5389	-0.051
Mof_C 	C 	0.62562	0.97985	0.49933	0.002
Mof_C 	C 	0.62586	0.95318	0.49223	-0.002
Mof_C 	C 	0.62559	0.94605	0.46545	-0.008
Mof_C 	C 	0.6293	0.94056	0.51866	-0.078
Mof_H 	H 	0.6308	0.9222	0.5201	0.004
Mof_S 	S 	0.62666	0.98948	0.53204	0.083
Mof_C 	C 	0.62589	0.97786	0.52823	-0.069
Mof_H 	H 	0.6245	0.993	0.5387	0.009
Mof_S 	S 	0.62696	0.92844	0.51461	0.1
Mof_C 	C 	0.62633	0.92283	0.44835	-0.047
Mof_H 	H 	0.6257	0.9061	0.4562	-0.01
Mof_S 	S 	0.12629	0.41302	0.45816	0.099
Mof_O 	O 	0.12509	0.46262	0.58434	-0.376
Mof_O 	O 	0.13822	0.42279	0.57019	-0.386
Mof_O 	O 	0.12558	0.37992	0.4112	-0.374
Mof_C 	C 	0.13058	0.44598	0.56735	0.383
Mof_C 	C 	0.12794	0.45456	0.5389	-0.051
Mof_C 	C 	0.12562	0.47985	0.49933	0.002
Mof_C 	C 	0.12586	0.45318	0.49223	-0.002
Mof_C 	C 	0.12559	0.44605	0.46545	-0.008
Mof_C 	C 	0.1293	0.44056	0.51866	-0.078
Mof_H 	H 	0.1308	0.4222	0.5201	0.004
Mof_S 	S 	0.12666	0.48948	0.53204	0.083
Mof_C 	C 	0.12589	0.47786	0.52823	-0.069
Mof_H 	H 	0.1245	0.493	0.5387	0.009
Mof_S 	S 	0.12696	0.42844	0.51461	0.1
Mof_C 	C 	0.12633	0.42283	0.44835	-0.047
Mof_H 	H 	0.1257	0.4061	0.4562	-0.01
Mof_S 	S 	0.12629	0.91302	0.95816	0.099
Mof_O 	O 	0.12509	0.96262	0.08434	-0.376
Mof_O 	O 	0.13822	0.92279	0.07019	-0.386
Mof_O 	O 	0.12558	0.87992	0.9112	-0.374
Mof_C 	C 	0.13058	0.94598	0.06735	0.383
Mof_C 	C 	0.12794	0.95456	0.0389	-0.051
Mof_C 	C 	0.12562	0.97985	0.99933	0.002
Mof_C 	C 	0.12586	0.95318	0.99223	-0.002
Mof_C 	C 	0.12559	0.94605	0.96545	-0.008
Mof_C 	C 	0.1293	0.94056	0.01866	-0.078
Mof_H 	H 	0.1308	0.9222	0.0201	0.004
Mof_S 	S 	0.12666	0.98948	0.03204	0.083
Mof_C 	C 	0.12589	0.97786	0.02823	-0.069
Mof_H 	H 	0.1245	0.993	0.0387	0.009
Mof_S 	S 	0.12696	0.92844	0.01461	0.1
Mof_C 	C 	0.12633	0.92283	0.94835	-0.047
Mof_H 	H 	0.1257	0.9061	0.9562	-0.01
Mof_S 	S 	0.62371	0.33698	0.45816	0.099
Mof_O 	O 	0.62491	0.28738	0.58434	-0.376
Mof_O 	O 	0.61178	0.32721	0.57019	-0.386
Mof_O 	O 	0.62442	0.37008	0.4112	-0.374
Mof_C 	C 	0.61942	0.30402	0.56735	0.383
Mof_C 	C 	0.62206	0.29544	0.5389	-0.051
Mof_C 	C 	0.62438	0.27015	0.49933	0.002
Mof_C 	C 	0.62414	0.29682	0.49223	-0.002
Mof_C 	C 	0.62441	0.30395	0.46545	-0.008
Mof_C 	C 	0.6207	0.30944	0.51866	-0.078
Mof_H 	H 	0.6192	0.3278	0.5201	0.004
Mof_S 	S 	0.62334	0.26052	0.53204	0.083
Mof_C 	C 	0.62411	0.27214	0.52823	-0.069
Mof_H 	H 	0.6255	0.257	0.5387	0.009
Mof_S 	S 	0.62304	0.32156	0.51461	0.1
Mof_C 	C 	0.62367	0.32717	0.44835	-0.047
Mof_H 	H 	0.6243	0.3439	0.4562	-0.01
Mof_S 	S 	0.62371	0.83698	0.95816	0.099
Mof_O 	O 	0.62491	0.78738	0.08434	-0.376
Mof_O 	O 	0.61178	0.82721	0.07019	-0.386
Mof_O 	O 	0.62442	0.87008	0.9112	-0.374
Mof_C 	C 	0.61942	0.80402	0.06735	0.383
Mof_C 	C 	0.62206	0.79544	0.0389	-0.051
Mof_C 	C 	0.62438	0.77015	0.99933	0.002
Mof_C 	C 	0.62414	0.79682	0.99223	-0.002
Mof_C 	C 	0.62441	0.80395	0.96545	-0.008
Mof_C 	C 	0.6207	0.80944	0.01866	-0.078
Mof_H 	H 	0.6192	0.8278	0.0201	0.004
Mof_S 	S 	0.62334	0.76052	0.03204	0.083
Mof_C 	C 	0.62411	0.77214	0.02823	-0.069
Mof_H 	H 	0.6255	0.757	0.0387	0.009
Mof_S 	S 	0.62304	0.82156	0.01461	0.1
Mof_C 	C 	0.62367	0.82717	0.94835	-0.047
Mof_H 	H 	0.6243	0.8439	0.9562	-0.01
Mof_S 	S 	0.12371	0.33698	0.95816	0.099
Mof_O 	O 	0.12491	0.28738	0.08434	-0.376
Mof_O 	O 	0.11178	0.32721	0.07019	-0.386
Mof_O 	O 	0.12442	0.37008	0.9112	-0.374
Mof_C 	C 	0.11942	0.30402	0.06735	0.383
Mof_C 	C 	0.12206	0.29544	0.0389	-0.051
Mof_C 	C 	0.12438	0.27015	0.99933	0.002
Mof_C 	C 	0.12414	0.29682	0.99223	-0.002
Mof_C 	C 	0.12441	0.30395	0.96545	-0.008
Mof_C 	C 	0.1207	0.30944	0.01866	-0.078
Mof_H 	H 	0.1192	0.3278	0.0201	0.004
Mof_S 	S 	0.12334	0.26052	0.03204	0.083
Mof_C 	C 	0.12411	0.27214	0.02823	-0.069
Mof_H 	H 	0.1255	0.257	0.0387	0.009
Mof_S 	S 	0.12304	0.32156	0.01461	0.1
Mof_C 	C 	0.12367	0.32717	0.94835	-0.047
Mof_H 	H 	0.1243	0.3439	0.9562	-0.01
Mof_S 	S 	0.12371	0.83698	0.45816	0.099
Mof_O 	O 	0.12491	0.78738	0.58434	-0.376
Mof_O 	O 	0.11178	0.82721	0.57019	-0.386
Mof_O 	O 	0.12442	0.87008	0.4112	-0.374
Mof_C 	C 	0.11942	0.80402	0.56735	0.383
Mof_C 	C 	0.12206	0.79544	0.5389	-0.051
Mof_C 	C 	0.12438	0.77015	0.49933	0.002
Mof_C 	C 	0.12414	0.79682	0.49223	-0.002
Mof_C 	C 	0.12441	0.80395	0.46545	-0.008
Mof_C 	C 	0.1207	0.80944	0.51866	-0.078
Mof_H 	H 	0.1192	0.8278	0.5201	0.004
Mof_S 	S 	0.12334	0.76052	0.53204	0.083
Mof_C 	C 	0.12411	0.77214	0.52823	-0.069
Mof_H 	H 	0.1255	0.757	0.5387	0.009
Mof_S 	S 	0.12304	0.82156	0.51461	0.1
Mof_C 	C 	0.12367	0.82717	0.44835	-0.047
Mof_H 	H 	0.1243	0.8439	0.4562	-0.01
Mof_S 	S 	0.12629	0.83698	0.79184	0.099
Mof_O 	O 	0.12509	0.78738	0.66566	-0.376
Mof_O 	O 	0.13822	0.82721	0.67981	-0.386
Mof_O 	O 	0.12558	0.87008	0.8388	-0.374
Mof_C 	C 	0.13058	0.80402	0.68265	0.383
Mof_C 	C 	0.12794	0.79544	0.7111	-0.051
Mof_C 	C 	0.12562	0.77015	0.75067	0.002
Mof_C 	C 	0.12586	0.79682	0.75777	-0.002
Mof_C 	C 	0.12559	0.80395	0.78455	-0.008
Mof_C 	C 	0.1293	0.80944	0.73134	-0.078
Mof_H 	H 	0.1308	0.8278	0.7299	0.004
Mof_S 	S 	0.12666	0.76052	0.71796	0.083
Mof_C 	C 	0.12589	0.77214	0.72177	-0.069
Mof_H 	H 	0.1245	0.757	0.7113	0.009
Mof_S 	S 	0.12696	0.82156	0.73539	0.1
Mof_C 	C 	0.12633	0.82717	0.80165	-0.047
Mof_H 	H 	0.1257	0.8439	0.7938	-0.01
Mof_S 	S 	0.12629	0.33698	0.29184	0.099
Mof_O 	O 	0.12509	0.28738	0.16566	-0.376
Mof_O 	O 	0.13822	0.32721	0.17981	-0.386
Mof_O 	O 	0.12558	0.37008	0.3388	-0.374
Mof_C 	C 	0.13058	0.30402	0.18265	0.383
Mof_C 	C 	0.12794	0.29544	0.2111	-0.051
Mof_C 	C 	0.12562	0.27015	0.25067	0.002
Mof_C 	C 	0.12586	0.29682	0.25777	-0.002
Mof_C 	C 	0.12559	0.30395	0.28455	-0.008
Mof_C 	C 	0.1293	0.30944	0.23134	-0.078
Mof_H 	H 	0.1308	0.3278	0.2299	0.004
Mof_S 	S 	0.12666	0.26052	0.21796	0.083
Mof_C 	C 	0.12589	0.27214	0.22177	-0.069
Mof_H 	H 	0.1245	0.257	0.2113	0.009
Mof_S 	S 	0.12696	0.32156	0.23539	0.1
Mof_C 	C 	0.12633	0.32717	0.30165	-0.047
Mof_H 	H 	0.1257	0.3439	0.2938	-0.01
Mof_S 	S 	0.62629	0.83698	0.29184	0.099
Mof_O 	O 	0.62509	0.78738	0.16566	-0.376
Mof_O 	O 	0.63822	0.82721	0.17981	-0.386
Mof_O 	O 	0.62558	0.87008	0.3388	-0.374
Mof_C 	C 	0.63058	0.80402	0.18265	0.383
Mof_C 	C 	0.62794	0.79544	0.2111	-0.051
Mof_C 	C 	0.62562	0.77015	0.25067	0.002
Mof_C 	C 	0.62586	0.79682	0.25777	-0.002
Mof_C 	C 	0.62559	0.80395	0.28455	-0.008
Mof_C 	C 	0.6293	0.80944	0.23134	-0.078
Mof_H 	H 	0.6308	0.8278	0.2299	0.004
Mof_S 	S 	0.62666	0.76052	0.21796	0.083
Mof_C 	C 	0.62589	0.77214	0.22177	-0.069
Mof_H 	H 	0.6245	0.757	0.2113	0.009
Mof_S 	S 	0.62696	0.82156	0.23539	0.1
Mof_C 	C 	0.62633	0.82717	0.30165	-0.047
Mof_H 	H 	0.6257	0.8439	0.2938	-0.01
Mof_S 	S 	0.62629	0.33698	0.79184	0.099
Mof_O 	O 	0.62509	0.28738	0.66566	-0.376
Mof_O 	O 	0.63822	0.32721	0.67981	-0.386
Mof_O 	O 	0.62558	0.37008	0.8388	-0.374
Mof_C 	C 	0.63058	0.30402	0.68265	0.383
Mof_C 	C 	0.62794	0.29544	0.7111	-0.051
Mof_C 	C 	0.62562	0.27015	0.75067	0.002
Mof_C 	C 	0.62586	0.29682	0.75777	-0.002
Mof_C 	C 	0.62559	0.30395	0.78455	-0.008
Mof_C 	C 	0.6293	0.30944	0.73134	-0.078
Mof_H 	H 	0.6308	0.3278	0.7299	0.004
Mof_S 	S 	0.62666	0.26052	0.71796	0.083
Mof_C 	C 	0.62589	0.27214	0.72177	-0.069
Mof_H 	H 	0.6245	0.257	0.7113	0.009
Mof_S 	S 	0.62696	0.32156	0.73539	0.1
Mof_C 	C 	0.62633	0.32717	0.80165	-0.047
Mof_H 	H 	0.6257	0.3439	0.7938	-0.01
Mof_S 	S 	0.37371	0.04184	0.58698	0.099
Mof_O 	O 	0.37491	0.91566	0.53738	-0.376
Mof_O 	O 	0.36178	0.92981	0.57721	-0.386
Mof_O 	O 	0.37442	0.0888	0.62008	-0.374
Mof_C 	C 	0.36942	0.93265	0.55402	0.383
Mof_C 	C 	0.37206	0.9611	0.54544	-0.051
Mof_C 	C 	0.37438	0.00067	0.52015	0.002
Mof_C 	C 	0.37414	0.00777	0.54682	-0.002
Mof_C 	C 	0.37441	0.03455	0.55395	-0.008
Mof_C 	C 	0.3707	0.98134	0.55944	-0.078
Mof_H 	H 	0.3692	0.9799	0.5778	0.004
Mof_S 	S 	0.37334	0.96796	0.51052	0.083
Mof_C 	C 	0.37411	0.97177	0.52214	-0.069
Mof_H 	H 	0.3755	0.9613	0.507	0.009
Mof_S 	S 	0.37304	0.98539	0.57156	0.1
Mof_C 	C 	0.37367	0.05165	0.57717	-0.047
Mof_H 	H 	0.3743	0.0438	0.5939	-0.01
Mof_S 	S 	0.37371	0.54184	0.08698	0.099
Mof_O 	O 	0.37491	0.41566	0.03738	-0.376
Mof_O 	O 	0.36178	0.42981	0.07721	-0.386
Mof_O 	O 	0.37442	0.5888	0.12008	-0.374
Mof_C 	C 	0.36942	0.43265	0.05402	0.383
Mof_C 	C 	0.37206	0.4611	0.04544	-0.051
Mof_C 	C 	0.37438	0.50067	0.02015	0.002
Mof_C 	C 	0.37414	0.50777	0.04682	-0.002
Mof_C 	C 	0.37441	0.53455	0.05395	-0.008
Mof_C 	C 	0.3707	0.48134	0.05944	-0.078
Mof_H 	H 	0.3692	0.4799	0.0778	0.004
Mof_S 	S 	0.37334	0.46796	0.01052	0.083
Mof_C 	C 	0.37411	0.47177	0.02214	-0.069
Mof_H 	H 	0.3755	0.4613	0.007	0.009
Mof_S 	S 	0.37304	0.48539	0.07156	0.1
Mof_C 	C 	0.37367	0.55165	0.07717	-0.047
Mof_H 	H 	0.3743	0.5438	0.0939	-0.01
Mof_S 	S 	0.87371	0.04184	0.08698	0.099
Mof_O 	O 	0.87491	0.91566	0.03738	-0.376
Mof_O 	O 	0.86178	0.92981	0.07721	-0.386
Mof_O 	O 	0.87442	0.0888	0.12008	-0.374
Mof_C 	C 	0.86942	0.93265	0.05402	0.383
Mof_C 	C 	0.87206	0.9611	0.04544	-0.051
Mof_C 	C 	0.87438	0.00067	0.02015	0.002
Mof_C 	C 	0.87414	0.00777	0.04682	-0.002
Mof_C 	C 	0.87441	0.03455	0.05395	-0.008
Mof_C 	C 	0.8707	0.98134	0.05944	-0.078
Mof_H 	H 	0.8692	0.9799	0.0778	0.004
Mof_S 	S 	0.87334	0.96796	0.01052	0.083
Mof_C 	C 	0.87411	0.97177	0.02214	-0.069
Mof_H 	H 	0.8755	0.9613	0.007	0.009
Mof_S 	S 	0.87304	0.98539	0.07156	0.1
Mof_C 	C 	0.87367	0.05165	0.07717	-0.047
Mof_H 	H 	0.8743	0.0438	0.0939	-0.01
Mof_S 	S 	0.87371	0.54184	0.58698	0.099
Mof_O 	O 	0.87491	0.41566	0.53738	-0.376
Mof_O 	O 	0.86178	0.42981	0.57721	-0.386
Mof_O 	O 	0.87442	0.5888	0.62008	-0.374
Mof_C 	C 	0.86942	0.43265	0.55402	0.383
Mof_C 	C 	0.87206	0.4611	0.54544	-0.051
Mof_C 	C 	0.87438	0.50067	0.52015	0.002
Mof_C 	C 	0.87414	0.50777	0.54682	-0.002
Mof_C 	C 	0.87441	0.53455	0.55395	-0.008
Mof_C 	C 	0.8707	0.48134	0.55944	-0.078
Mof_H 	H 	0.8692	0.4799	0.5778	0.004
Mof_S 	S 	0.87334	0.46796	0.51052	0.083
Mof_C 	C 	0.87411	0.47177	0.52214	-0.069
Mof_H 	H 	0.8755	0.4613	0.507	0.009
Mof_S 	S 	0.87304	0.48539	0.57156	0.1
Mof_C 	C 	0.87367	0.55165	0.57717	-0.047
Mof_H 	H 	0.8743	0.5438	0.5939	-0.01
Mof_S 	S 	0.87629	0.70816	0.08698	0.099
Mof_O 	O 	0.87509	0.83434	0.03738	-0.376
Mof_O 	O 	0.88822	0.82019	0.07721	-0.386
Mof_O 	O 	0.87558	0.6612	0.12008	-0.374
Mof_C 	C 	0.88058	0.81735	0.05402	0.383
Mof_C 	C 	0.87794	0.7889	0.04544	-0.051
Mof_C 	C 	0.87562	0.74933	0.02015	0.002
Mof_C 	C 	0.87586	0.74223	0.04682	-0.002
Mof_C 	C 	0.87559	0.71545	0.05395	-0.008
Mof_C 	C 	0.8793	0.76866	0.05944	-0.078
Mof_H 	H 	0.8808	0.7701	0.0778	0.004
Mof_S 	S 	0.87666	0.78204	0.01052	0.083
Mof_C 	C 	0.87589	0.77823	0.02214	-0.069
Mof_H 	H 	0.8745	0.7887	0.007	0.009
Mof_S 	S 	0.87696	0.76461	0.07156	0.1
Mof_C 	C 	0.87633	0.69835	0.07717	-0.047
Mof_H 	H 	0.8757	0.7062	0.0939	-0.01
Mof_S 	S 	0.87629	0.20816	0.58698	0.099
Mof_O 	O 	0.87509	0.33434	0.53738	-0.376
Mof_O 	O 	0.88822	0.32019	0.57721	-0.386
Mof_O 	O 	0.87558	0.1612	0.62008	-0.374
Mof_C 	C 	0.88058	0.31735	0.55402	0.383
Mof_C 	C 	0.87794	0.2889	0.54544	-0.051
Mof_C 	C 	0.87562	0.24933	0.52015	0.002
Mof_C 	C 	0.87586	0.24223	0.54682	-0.002
Mof_C 	C 	0.87559	0.21545	0.55395	-0.008
Mof_C 	C 	0.8793	0.26866	0.55944	-0.078
Mof_H 	H 	0.8808	0.2701	0.5778	0.004
Mof_S 	S 	0.87666	0.28204	0.51052	0.083
Mof_C 	C 	0.87589	0.27823	0.52214	-0.069
Mof_H 	H 	0.8745	0.2887	0.507	0.009
Mof_S 	S 	0.87696	0.26461	0.57156	0.1
Mof_C 	C 	0.87633	0.19835	0.57717	-0.047
Mof_H 	H 	0.8757	0.2062	0.5939	-0.01
Mof_S 	S 	0.37629	0.70816	0.58698	0.099
Mof_O 	O 	0.37509	0.83434	0.53738	-0.376
Mof_O 	O 	0.38822	0.82019	0.57721	-0.386
Mof_O 	O 	0.37558	0.6612	0.62008	-0.374
Mof_C 	C 	0.38058	0.81735	0.55402	0.383
Mof_C 	C 	0.37794	0.7889	0.54544	-0.051
Mof_C 	C 	0.37562	0.74933	0.52015	0.002
Mof_C 	C 	0.37586	0.74223	0.54682	-0.002
Mof_C 	C 	0.37559	0.71545	0.55395	-0.008
Mof_C 	C 	0.3793	0.76866	0.55944	-0.078
Mof_H 	H 	0.3808	0.7701	0.5778	0.004
Mof_S 	S 	0.37666	0.78204	0.51052	0.083
Mof_C 	C 	0.37589	0.77823	0.52214	-0.069
Mof_H 	H 	0.3745	0.7887	0.507	0.009
Mof_S 	S 	0.37696	0.76461	0.57156	0.1
Mof_C 	C 	0.37633	0.69835	0.57717	-0.047
Mof_H 	H 	0.3757	0.7062	0.5939	-0.01
Mof_S 	S 	0.37629	0.20816	0.08698	0.099
Mof_O 	O 	0.37509	0.33434	0.03738	-0.376
Mof_O 	O 	0.38822	0.32019	0.07721	-0.386
Mof_O 	O 	0.37558	0.1612	0.12008	-0.374
Mof_C 	C 	0.38058	0.31735	0.05402	0.383
Mof_C 	C 	0.37794	0.2889	0.04544	-0.051
Mof_C 	C 	0.37562	0.24933	0.02015	0.002
Mof_C 	C 	0.37586	0.24223	0.04682	-0.002
Mof_C 	C 	0.37559	0.21545	0.05395	-0.008
Mof_C 	C 	0.3793	0.26866	0.05944	-0.078
Mof_H 	H 	0.3808	0.2701	0.0778	0.004
Mof_S 	S 	0.37666	0.28204	0.01052	0.083
Mof_C 	C 	0.37589	0.27823	0.02214	-0.069
Mof_H 	H 	0.3745	0.2887	0.007	0.009
Mof_S 	S 	0.37696	0.26461	0.07156	0.1
Mof_C 	C 	0.37633	0.19835	0.07717	-0.047
Mof_H 	H 	0.3757	0.2062	0.0939	-0.01
Mof_S 	S 	0.87371	0.20816	0.16302	0.099
Mof_O 	O 	0.87491	0.33434	0.21262	-0.376
Mof_O 	O 	0.86178	0.32019	0.17279	-0.386
Mof_O 	O 	0.87442	0.1612	0.12992	-0.374
Mof_C 	C 	0.86942	0.31735	0.19598	0.383
Mof_C 	C 	0.87206	0.2889	0.20456	-0.051
Mof_C 	C 	0.87438	0.24933	0.22985	0.002
Mof_C 	C 	0.87414	0.24223	0.20318	-0.002
Mof_C 	C 	0.87441	0.21545	0.19605	-0.008
Mof_C 	C 	0.8707	0.26866	0.19056	-0.078
Mof_H 	H 	0.8692	0.2701	0.1722	0.004
Mof_S 	S 	0.87334	0.28204	0.23948	0.083
Mof_C 	C 	0.87411	0.27823	0.22786	-0.069
Mof_H 	H 	0.8755	0.2887	0.243	0.009
Mof_S 	S 	0.87304	0.26461	0.17844	0.1
Mof_C 	C 	0.87367	0.19835	0.17283	-0.047
Mof_H 	H 	0.8743	0.2062	0.1561	-0.01
Mof_S 	S 	0.87371	0.70816	0.66302	0.099
Mof_O 	O 	0.87491	0.83434	0.71262	-0.376
Mof_O 	O 	0.86178	0.82019	0.67279	-0.386
Mof_O 	O 	0.87442	0.6612	0.62992	-0.374
Mof_C 	C 	0.86942	0.81735	0.69598	0.383
Mof_C 	C 	0.87206	0.7889	0.70456	-0.051
Mof_C 	C 	0.87438	0.74933	0.72985	0.002
Mof_C 	C 	0.87414	0.74223	0.70318	-0.002
Mof_C 	C 	0.87441	0.71545	0.69605	-0.008
Mof_C 	C 	0.8707	0.76866	0.69056	-0.078
Mof_H 	H 	0.8692	0.7701	0.6722	0.004
Mof_S 	S 	0.87334	0.78204	0.73948	0.083
Mof_C 	C 	0.87411	0.77823	0.72786	-0.069
Mof_H 	H 	0.8755	0.7887	0.743	0.009
Mof_S 	S 	0.87304	0.76461	0.67844	0.1
Mof_C 	C 	0.87367	0.69835	0.67283	-0.047
Mof_H 	H 	0.8743	0.7062	0.6561	-0.01
Mof_S 	S 	0.37371	0.20816	0.66302	0.099
Mof_O 	O 	0.37491	0.33434	0.71262	-0.376
Mof_O 	O 	0.36178	0.32019	0.67279	-0.386
Mof_O 	O 	0.37442	0.1612	0.62992	-0.374
Mof_C 	C 	0.36942	0.31735	0.69598	0.383
Mof_C 	C 	0.37206	0.2889	0.70456	-0.051
Mof_C 	C 	0.37438	0.24933	0.72985	0.002
Mof_C 	C 	0.37414	0.24223	0.70318	-0.002
Mof_C 	C 	0.37441	0.21545	0.69605	-0.008
Mof_C 	C 	0.3707	0.26866	0.69056	-0.078
Mof_H 	H 	0.3692	0.2701	0.6722	0.004
Mof_S 	S 	0.37334	0.28204	0.73948	0.083
Mof_C 	C 	0.37411	0.27823	0.72786	-0.069
Mof_H 	H 	0.3755	0.2887	0.743	0.009
Mof_S 	S 	0.37304	0.26461	0.67844	0.1
Mof_C 	C 	0.37367	0.19835	0.67283	-0.047
Mof_H 	H 	0.3743	0.2062	0.6561	-0.01
Mof_S 	S 	0.37371	0.70816	0.16302	0.099
Mof_O 	O 	0.37491	0.83434	0.21262	-0.376
Mof_O 	O 	0.36178	0.82019	0.17279	-0.386
Mof_O 	O 	0.37442	0.6612	0.12992	-0.374
Mof_C 	C 	0.36942	0.81735	0.19598	0.383
Mof_C 	C 	0.37206	0.7889	0.20456	-0.051
Mof_C 	C 	0.37438	0.74933	0.22985	0.002
Mof_C 	C 	0.37414	0.74223	0.20318	-0.002
Mof_C 	C 	0.37441	0.71545	0.19605	-0.008
Mof_C 	C 	0.3707	0.76866	0.19056	-0.078
Mof_H 	H 	0.3692	0.7701	0.1722	0.004
Mof_S 	S 	0.37334	0.78204	0.23948	0.083
Mof_C 	C 	0.37411	0.77823	0.22786	-0.069
Mof_H 	H 	0.3755	0.7887	0.243	0.009
Mof_S 	S 	0.37304	0.76461	0.17844	0.1
Mof_C 	C 	0.37367	0.69835	0.17283	-0.047
Mof_H 	H 	0.3743	0.7062	0.1561	-0.01
Mof_S 	S 	0.37629	0.54184	0.66302	0.099
Mof_O 	O 	0.37509	0.41566	0.71262	-0.376
Mof_O 	O 	0.38822	0.42981	0.67279	-0.386
Mof_O 	O 	0.37558	0.5888	0.62992	-0.374
Mof_C 	C 	0.38058	0.43265	0.69598	0.383
Mof_C 	C 	0.37794	0.4611	0.70456	-0.051
Mof_C 	C 	0.37562	0.50067	0.72985	0.002
Mof_C 	C 	0.37586	0.50777	0.70318	-0.002
Mof_C 	C 	0.37559	0.53455	0.69605	-0.008
Mof_C 	C 	0.3793	0.48134	0.69056	-0.078
Mof_H 	H 	0.3808	0.4799	0.6722	0.004
Mof_S 	S 	0.37666	0.46796	0.73948	0.083
Mof_C 	C 	0.37589	0.47177	0.72786	-0.069
Mof_H 	H 	0.3745	0.4613	0.743	0.009
Mof_S 	S 	0.37696	0.48539	0.67844	0.1
Mof_C 	C 	0.37633	0.55165	0.67283	-0.047
Mof_H 	H 	0.3757	0.5438	0.6561	-0.01
Mof_S 	S 	0.37629	0.04184	0.16302	0.099
Mof_O 	O 	0.37509	0.91566	0.21262	-0.376
Mof_O 	O 	0.38822	0.92981	0.17279	-0.386
Mof_O 	O 	0.37558	0.0888	0.12992	-0.374
Mof_C 	C 	0.38058	0.93265	0.19598	0.383
Mof_C 	C 	0.37794	0.9611	0.20456	-0.051
Mof_C 	C 	0.37562	0.00067	0.22985	0.002
Mof_C 	C 	0.37586	0.00777	0.20318	-0.002
Mof_C 	C 	0.37559	0.03455	0.19605	-0.008
Mof_C 	C 	0.3793	0.98134	0.19056	-0.078
Mof_H 	H 	0.3808	0.9799	0.1722	0.004
Mof_S 	S 	0.37666	0.96796	0.23948	0.083
Mof_C 	C 	0.37589	0.97177	0.22786	-0.069
Mof_H 	H 	0.3745	0.9613	0.243	0.009
Mof_S 	S 	0.37696	0.98539	0.17844	0.1
Mof_C 	C 	0.37633	0.05165	0.17283	-0.047
Mof_H 	H 	0.3757	0.0438	0.1561	-0.01
Mof_S 	S 	0.87629	0.54184	0.16302	0.099
Mof_O 	O 	0.87509	0.41566	0.21262	-0.376
Mof_O 	O 	0.88822	0.42981	0.17279	-0.386
Mof_O 	O 	0.87558	0.5888	0.12992	-0.374
Mof_C 	C 	0.88058	0.43265	0.19598	0.383
Mof_C 	C 	0.87794	0.4611	0.20456	-0.051
Mof_C 	C 	0.87562	0.50067	0.22985	0.002
Mof_C 	C 	0.87586	0.50777	0.20318	-0.002
Mof_C 	C 	0.87559	0.53455	0.19605	-0.008
Mof_C 	C 	0.8793	0.48134	0.19056	-0.078
Mof_H 	H 	0.8808	0.4799	0.1722	0.004
Mof_S 	S 	0.87666	0.46796	0.23948	0.083
Mof_C 	C 	0.87589	0.47177	0.22786	-0.069
Mof_H 	H 	0.8745	0.4613	0.243	0.009
Mof_S 	S 	0.87696	0.48539	0.17844	0.1
Mof_C 	C 	0.87633	0.55165	0.17283	-0.047
Mof_H 	H 	0.8757	0.5438	0.1561	-0.01
Mof_S 	S 	0.87629	0.04184	0.66302	0.099
Mof_O 	O 	0.87509	0.91566	0.71262	-0.376
Mof_O 	O 	0.88822	0.92981	0.67279	-0.386
Mof_O 	O 	0.87558	0.0888	0.62992	-0.374
Mof_C 	C 	0.88058	0.93265	0.69598	0.383
Mof_C 	C 	0.87794	0.9611	0.70456	-0.051
Mof_C 	C 	0.87562	0.00067	0.72985	0.002
Mof_C 	C 	0.87586	0.00777	0.70318	-0.002
Mof_C 	C 	0.87559	0.03455	0.69605	-0.008
Mof_C 	C 	0.8793	0.98134	0.69056	-0.078
Mof_H 	H 	0.8808	0.9799	0.6722	0.004
Mof_S 	S 	0.87666	0.96796	0.73948	0.083
Mof_C 	C 	0.87589	0.97177	0.72786	-0.069
Mof_H 	H 	0.8745	0.9613	0.743	0.009
Mof_S 	S 	0.87696	0.98539	0.67844	0.1
Mof_C 	C 	0.87633	0.05165	0.67283	-0.047
Mof_H 	H 	0.8757	0.0438	0.6561	-0.01
Mof_S 	S 	0.54184	0.66302	0.37629	0.099
Mof_O 	O 	0.41566	0.71262	0.37509	-0.376
Mof_O 	O 	0.42981	0.67279	0.38822	-0.386
Mof_O 	O 	0.5888	0.62992	0.37558	-0.374
Mof_C 	C 	0.43265	0.69598	0.38058	0.383
Mof_C 	C 	0.4611	0.70456	0.37794	-0.051
Mof_C 	C 	0.50067	0.72985	0.37562	0.002
Mof_C 	C 	0.50777	0.70318	0.37586	-0.002
Mof_C 	C 	0.53455	0.69605	0.37559	-0.008
Mof_C 	C 	0.48134	0.69056	0.3793	-0.078
Mof_H 	H 	0.4799	0.6722	0.3808	0.004
Mof_S 	S 	0.46796	0.73948	0.37666	0.083
Mof_C 	C 	0.47177	0.72786	0.37589	-0.069
Mof_H 	H 	0.4613	0.743	0.3745	0.009
Mof_S 	S 	0.48539	0.67844	0.37696	0.1
Mof_C 	C 	0.55165	0.67283	0.37633	-0.047
Mof_H 	H 	0.5438	0.6561	0.3757	-0.01
Mof_S 	S 	0.54184	0.16302	0.87629	0.099
Mof_O 	O 	0.41566	0.21262	0.87509	-0.376
Mof_O 	O 	0.42981	0.17279	0.88822	-0.386
Mof_O 	O 	0.5888	0.12992	0.87558	-0.374
Mof_C 	C 	0.43265	0.19598	0.88058	0.383
Mof_C 	C 	0.4611	0.20456	0.87794	-0.051
Mof_C 	C 	0.50067	0.22985	0.87562	0.002
Mof_C 	C 	0.50777	0.20318	0.87586	-0.002
Mof_C 	C 	0.53455	0.19605	0.87559	-0.008
Mof_C 	C 	0.48134	0.19056	0.8793	-0.078
Mof_H 	H 	0.4799	0.1722	0.8808	0.004
Mof_S 	S 	0.46796	0.23948	0.87666	0.083
Mof_C 	C 	0.47177	0.22786	0.87589	-0.069
Mof_H 	H 	0.4613	0.243	0.8745	0.009
Mof_S 	S 	0.48539	0.17844	0.87696	0.1
Mof_C 	C 	0.55165	0.17283	0.87633	-0.047
Mof_H 	H 	0.5438	0.1561	0.8757	-0.01
Mof_S 	S 	0.04184	0.66302	0.87629	0.099
Mof_O 	O 	0.91566	0.71262	0.87509	-0.376
Mof_O 	O 	0.92981	0.67279	0.88822	-0.386
Mof_O 	O 	0.0888	0.62992	0.87558	-0.374
Mof_C 	C 	0.93265	0.69598	0.88058	0.383
Mof_C 	C 	0.9611	0.70456	0.87794	-0.051
Mof_C 	C 	0.00067	0.72985	0.87562	0.002
Mof_C 	C 	0.00777	0.70318	0.87586	-0.002
Mof_C 	C 	0.03455	0.69605	0.87559	-0.008
Mof_C 	C 	0.98134	0.69056	0.8793	-0.078
Mof_H 	H 	0.9799	0.6722	0.8808	0.004
Mof_S 	S 	0.96796	0.73948	0.87666	0.083
Mof_C 	C 	0.97177	0.72786	0.87589	-0.069
Mof_H 	H 	0.9613	0.743	0.8745	0.009
Mof_S 	S 	0.98539	0.67844	0.87696	0.1
Mof_C 	C 	0.05165	0.67283	0.87633	-0.047
Mof_H 	H 	0.0438	0.6561	0.8757	-0.01
Mof_S 	S 	0.04184	0.16302	0.37629	0.099
Mof_O 	O 	0.91566	0.21262	0.37509	-0.376
Mof_O 	O 	0.92981	0.17279	0.38822	-0.386
Mof_O 	O 	0.0888	0.12992	0.37558	-0.374
Mof_C 	C 	0.93265	0.19598	0.38058	0.383
Mof_C 	C 	0.9611	0.20456	0.37794	-0.051
Mof_C 	C 	0.00067	0.22985	0.37562	0.002
Mof_C 	C 	0.00777	0.20318	0.37586	-0.002
Mof_C 	C 	0.03455	0.19605	0.37559	-0.008
Mof_C 	C 	0.98134	0.19056	0.3793	-0.078
Mof_H 	H 	0.9799	0.1722	0.3808	0.004
Mof_S 	S 	0.96796	0.23948	0.37666	0.083
Mof_C 	C 	0.97177	0.22786	0.37589	-0.069
Mof_H 	H 	0.9613	0.243	0.3745	0.009
Mof_S 	S 	0.98539	0.17844	0.37696	0.1
Mof_C 	C 	0.05165	0.17283	0.37633	-0.047
Mof_H 	H 	0.0438	0.1561	0.3757	-0.01
Mof_S 	S 	0.20816	0.16302	0.87371	0.099
Mof_O 	O 	0.33434	0.21262	0.87491	-0.376
Mof_O 	O 	0.32019	0.17279	0.86178	-0.386
Mof_O 	O 	0.1612	0.12992	0.87442	-0.374
Mof_C 	C 	0.31735	0.19598	0.86942	0.383
Mof_C 	C 	0.2889	0.20456	0.87206	-0.051
Mof_C 	C 	0.24933	0.22985	0.87438	0.002
Mof_C 	C 	0.24223	0.20318	0.87414	-0.002
Mof_C 	C 	0.21545	0.19605	0.87441	-0.008
Mof_C 	C 	0.26866	0.19056	0.8707	-0.078
Mof_H 	H 	0.2701	0.1722	0.8692	0.004
Mof_S 	S 	0.28204	0.23948	0.87334	0.083
Mof_C 	C 	0.27823	0.22786	0.87411	-0.069
Mof_H 	H 	0.2887	0.243	0.8755	0.009
Mof_S 	S 	0.26461	0.17844	0.87304	0.1
Mof_C 	C 	0.19835	0.17283	0.87367	-0.047
Mof_H 	H 	0.2062	0.1561	0.8743	-0.01
Mof_S 	S 	0.20816	0.66302	0.37371	0.099
Mof_O 	O 	0.33434	0.71262	0.37491	-0.376
Mof_O 	O 	0.32019	0.67279	0.36178	-0.386
Mof_O 	O 	0.1612	0.62992	0.37442	-0.374
Mof_C 	C 	0.31735	0.69598	0.36942	0.383
Mof_C 	C 	0.2889	0.70456	0.37206	-0.051
Mof_C 	C 	0.24933	0.72985	0.37438	0.002
Mof_C 	C 	0.24223	0.70318	0.37414	-0.002
Mof_C 	C 	0.21545	0.69605	0.37441	-0.008
Mof_C 	C 	0.26866	0.69056	0.3707	-0.078
Mof_H 	H 	0.2701	0.6722	0.3692	0.004
Mof_S 	S 	0.28204	0.73948	0.37334	0.083
Mof_C 	C 	0.27823	0.72786	0.37411	-0.069
Mof_H 	H 	0.2887	0.743	0.3755	0.009
Mof_S 	S 	0.26461	0.67844	0.37304	0.1
Mof_C 	C 	0.19835	0.67283	0.37367	-0.047
Mof_H 	H 	0.2062	0.6561	0.3743	-0.01
Mof_S 	S 	0.70816	0.16302	0.37371	0.099
Mof_O 	O 	0.83434	0.21262	0.37491	-0.376
Mof_O 	O 	0.82019	0.17279	0.36178	-0.386
Mof_O 	O 	0.6612	0.12992	0.37442	-0.374
Mof_C 	C 	0.81735	0.19598	0.36942	0.383
Mof_C 	C 	0.7889	0.20456	0.37206	-0.051
Mof_C 	C 	0.74933	0.22985	0.37438	0.002
Mof_C 	C 	0.74223	0.20318	0.37414	-0.002
Mof_C 	C 	0.71545	0.19605	0.37441	-0.008
Mof_C 	C 	0.76866	0.19056	0.3707	-0.078
Mof_H 	H 	0.7701	0.1722	0.3692	0.004
Mof_S 	S 	0.78204	0.23948	0.37334	0.083
Mof_C 	C 	0.77823	0.22786	0.37411	-0.069
Mof_H 	H 	0.7887	0.243	0.3755	0.009
Mof_S 	S 	0.76461	0.17844	0.37304	0.1
Mof_C 	C 	0.69835	0.17283	0.37367	-0.047
Mof_H 	H 	0.7062	0.1561	0.3743	-0.01
Mof_S 	S 	0.70816	0.66302	0.87371	0.099
Mof_O 	O 	0.83434	0.71262	0.87491	-0.376
Mof_O 	O 	0.82019	0.67279	0.86178	-0.386
Mof_O 	O 	0.6612	0.62992	0.87442	-0.374
Mof_C 	C 	0.81735	0.69598	0.86942	0.383
Mof_C 	C 	0.7889	0.70456	0.87206	-0.051
Mof_C 	C 	0.74933	0.72985	0.87438	0.002
Mof_C 	C 	0.74223	0.70318	0.87414	-0.002
Mof_C 	C 	0.71545	0.69605	0.87441	-0.008
Mof_C 	C 	0.76866	0.69056	0.8707	-0.078
Mof_H 	H 	0.7701	0.6722	0.8692	0.004
Mof_S 	S 	0.78204	0.73948	0.87334	0.083
Mof_C 	C 	0.77823	0.72786	0.87411	-0.069
Mof_H 	H 	0.7887	0.743	0.8755	0.009
Mof_S 	S 	0.76461	0.67844	0.87304	0.1
Mof_C 	C 	0.69835	0.67283	0.87367	-0.047
Mof_H 	H 	0.7062	0.6561	0.8743	-0.01
Mof_S 	S 	0.70816	0.08698	0.87629	0.099
Mof_O 	O 	0.83434	0.03738	0.87509	-0.376
Mof_O 	O 	0.82019	0.07721	0.88822	-0.386
Mof_O 	O 	0.6612	0.12008	0.87558	-0.374
Mof_C 	C 	0.81735	0.05402	0.88058	0.383
Mof_C 	C 	0.7889	0.04544	0.87794	-0.051
Mof_C 	C 	0.74933	0.02015	0.87562	0.002
Mof_C 	C 	0.74223	0.04682	0.87586	-0.002
Mof_C 	C 	0.71545	0.05395	0.87559	-0.008
Mof_C 	C 	0.76866	0.05944	0.8793	-0.078
Mof_H 	H 	0.7701	0.0778	0.8808	0.004
Mof_S 	S 	0.78204	0.01052	0.87666	0.083
Mof_C 	C 	0.77823	0.02214	0.87589	-0.069
Mof_H 	H 	0.7887	0.007	0.8745	0.009
Mof_S 	S 	0.76461	0.07156	0.87696	0.1
Mof_C 	C 	0.69835	0.07717	0.87633	-0.047
Mof_H 	H 	0.7062	0.0939	0.8757	-0.01
Mof_S 	S 	0.70816	0.58698	0.37629	0.099
Mof_O 	O 	0.83434	0.53738	0.37509	-0.376
Mof_O 	O 	0.82019	0.57721	0.38822	-0.386
Mof_O 	O 	0.6612	0.62008	0.37558	-0.374
Mof_C 	C 	0.81735	0.55402	0.38058	0.383
Mof_C 	C 	0.7889	0.54544	0.37794	-0.051
Mof_C 	C 	0.74933	0.52015	0.37562	0.002
Mof_C 	C 	0.74223	0.54682	0.37586	-0.002
Mof_C 	C 	0.71545	0.55395	0.37559	-0.008
Mof_C 	C 	0.76866	0.55944	0.3793	-0.078
Mof_H 	H 	0.7701	0.5778	0.3808	0.004
Mof_S 	S 	0.78204	0.51052	0.37666	0.083
Mof_C 	C 	0.77823	0.52214	0.37589	-0.069
Mof_H 	H 	0.7887	0.507	0.3745	0.009
Mof_S 	S 	0.76461	0.57156	0.37696	0.1
Mof_C 	C 	0.69835	0.57717	0.37633	-0.047
Mof_H 	H 	0.7062	0.5939	0.3757	-0.01
Mof_S 	S 	0.20816	0.08698	0.37629	0.099
Mof_O 	O 	0.33434	0.03738	0.37509	-0.376
Mof_O 	O 	0.32019	0.07721	0.38822	-0.386
Mof_O 	O 	0.1612	0.12008	0.37558	-0.374
Mof_C 	C 	0.31735	0.05402	0.38058	0.383
Mof_C 	C 	0.2889	0.04544	0.37794	-0.051
Mof_C 	C 	0.24933	0.02015	0.37562	0.002
Mof_C 	C 	0.24223	0.04682	0.37586	-0.002
Mof_C 	C 	0.21545	0.05395	0.37559	-0.008
Mof_C 	C 	0.26866	0.05944	0.3793	-0.078
Mof_H 	H 	0.2701	0.0778	0.3808	0.004
Mof_S 	S 	0.28204	0.01052	0.37666	0.083
Mof_C 	C 	0.27823	0.02214	0.37589	-0.069
Mof_H 	H 	0.2887	0.007	0.3745	0.009
Mof_S 	S 	0.26461	0.07156	0.37696	0.1
Mof_C 	C 	0.19835	0.07717	0.37633	-0.047
Mof_H 	H 	0.2062	0.0939	0.3757	-0.01
Mof_S 	S 	0.20816	0.58698	0.87629	0.099
Mof_O 	O 	0.33434	0.53738	0.87509	-0.376
Mof_O 	O 	0.32019	0.57721	0.88822	-0.386
Mof_O 	O 	0.1612	0.62008	0.87558	-0.374
Mof_C 	C 	0.31735	0.55402	0.88058	0.383
Mof_C 	C 	0.2889	0.54544	0.87794	-0.051
Mof_C 	C 	0.24933	0.52015	0.87562	0.002
Mof_C 	C 	0.24223	0.54682	0.87586	-0.002
Mof_C 	C 	0.21545	0.55395	0.87559	-0.008
Mof_C 	C 	0.26866	0.55944	0.8793	-0.078
Mof_H 	H 	0.2701	0.5778	0.8808	0.004
Mof_S 	S 	0.28204	0.51052	0.87666	0.083
Mof_C 	C 	0.27823	0.52214	0.87589	-0.069
Mof_H 	H 	0.2887	0.507	0.8745	0.009
Mof_S 	S 	0.26461	0.57156	0.87696	0.1
Mof_C 	C 	0.19835	0.57717	0.87633	-0.047
Mof_H 	H 	0.2062	0.5939	0.8757	-0.01
Mof_S 	S 	0.04184	0.58698	0.37371	0.099
Mof_O 	O 	0.91566	0.53738	0.37491	-0.376
Mof_O 	O 	0.92981	0.57721	0.36178	-0.386
Mof_O 	O 	0.0888	0.62008	0.37442	-0.374
Mof_C 	C 	0.93265	0.55402	0.36942	0.383
Mof_C 	C 	0.9611	0.54544	0.37206	-0.051
Mof_C 	C 	0.00067	0.52015	0.37438	0.002
Mof_C 	C 	0.00777	0.54682	0.37414	-0.002
Mof_C 	C 	0.03455	0.55395	0.37441	-0.008
Mof_C 	C 	0.98134	0.55944	0.3707	-0.078
Mof_H 	H 	0.9799	0.5778	0.3692	0.004
Mof_S 	S 	0.96796	0.51052	0.37334	0.083
Mof_C 	C 	0.97177	0.52214	0.37411	-0.069
Mof_H 	H 	0.9613	0.507	0.3755	0.009
Mof_S 	S 	0.98539	0.57156	0.37304	0.1
Mof_C 	C 	0.05165	0.57717	0.37367	-0.047
Mof_H 	H 	0.0438	0.5939	0.3743	-0.01
Mof_S 	S 	0.04184	0.08698	0.87371	0.099
Mof_O 	O 	0.91566	0.03738	0.87491	-0.376
Mof_O 	O 	0.92981	0.07721	0.86178	-0.386
Mof_O 	O 	0.0888	0.12008	0.87442	-0.374
Mof_C 	C 	0.93265	0.05402	0.86942	0.383
Mof_C 	C 	0.9611	0.04544	0.87206	-0.051
Mof_C 	C 	0.00067	0.02015	0.87438	0.002
Mof_C 	C 	0.00777	0.04682	0.87414	-0.002
Mof_C 	C 	0.03455	0.05395	0.87441	-0.008
Mof_C 	C 	0.98134	0.05944	0.8707	-0.078
Mof_H 	H 	0.9799	0.0778	0.8692	0.004
Mof_S 	S 	0.96796	0.01052	0.87334	0.083
Mof_C 	C 	0.97177	0.02214	0.87411	-0.069
Mof_H 	H 	0.9613	0.007	0.8755	0.009
Mof_S 	S 	0.98539	0.07156	0.87304	0.1
Mof_C 	C 	0.05165	0.07717	0.87367	-0.047
Mof_H 	H 	0.0438	0.0939	0.8743	-0.01
Mof_S 	S 	0.54184	0.58698	0.87371	0.099
Mof_O 	O 	0.41566	0.53738	0.87491	-0.376
Mof_O 	O 	0.42981	0.57721	0.86178	-0.386
Mof_O 	O 	0.5888	0.62008	0.87442	-0.374
Mof_C 	C 	0.43265	0.55402	0.86942	0.383
Mof_C 	C 	0.4611	0.54544	0.87206	-0.051
Mof_C 	C 	0.50067	0.52015	0.87438	0.002
Mof_C 	C 	0.50777	0.54682	0.87414	-0.002
Mof_C 	C 	0.53455	0.55395	0.87441	-0.008
Mof_C 	C 	0.48134	0.55944	0.8707	-0.078
Mof_H 	H 	0.4799	0.5778	0.8692	0.004
Mof_S 	S 	0.46796	0.51052	0.87334	0.083
Mof_C 	C 	0.47177	0.52214	0.87411	-0.069
Mof_H 	H 	0.4613	0.507	0.8755	0.009
Mof_S 	S 	0.48539	0.57156	0.87304	0.1
Mof_C 	C 	0.55165	0.57717	0.87367	-0.047
Mof_H 	H 	0.5438	0.5939	0.8743	-0.01
Mof_S 	S 	0.54184	0.08698	0.37371	0.099
Mof_O 	O 	0.41566	0.03738	0.37491	-0.376
Mof_O 	O 	0.42981	0.07721	0.36178	-0.386
Mof_O 	O 	0.5888	0.12008	0.37442	-0.374
Mof_C 	C 	0.43265	0.05402	0.36942	0.383
Mof_C 	C 	0.4611	0.04544	0.37206	-0.051
Mof_C 	C 	0.50067	0.02015	0.37438	0.002
Mof_C 	C 	0.50777	0.04682	0.37414	-0.002
Mof_C 	C 	0.53455	0.05395	0.37441	-0.008
Mof_C 	C 	0.48134	0.05944	0.3707	-0.078
Mof_H 	H 	0.4799	0.0778	0.3692	0.004
Mof_S 	S 	0.46796	0.01052	0.37334	0.083
Mof_C 	C 	0.47177	0.02214	0.37411	-0.069
Mof_H 	H 	0.4613	0.007	0.3755	0.009
Mof_S 	S 	0.48539	0.07156	0.37304	0.1
Mof_C 	C 	0.55165	0.07717	0.37367	-0.047
Mof_H 	H 	0.5438	0.0939	0.3743	-0.01
Mof_S 	S 	0.16302	0.87371	0.20816	0.099
Mof_O 	O 	0.21262	0.87491	0.33434	-0.376
Mof_O 	O 	0.17279	0.86178	0.32019	-0.386
Mof_O 	O 	0.12992	0.87442	0.1612	-0.374
Mof_C 	C 	0.19598	0.86942	0.31735	0.383
Mof_C 	C 	0.20456	0.87206	0.2889	-0.051
Mof_C 	C 	0.22985	0.87438	0.24933	0.002
Mof_C 	C 	0.20318	0.87414	0.24223	-0.002
Mof_C 	C 	0.19605	0.87441	0.21545	-0.008
Mof_C 	C 	0.19056	0.8707	0.26866	-0.078
Mof_H 	H 	0.1722	0.8692	0.2701	0.004
Mof_S 	S 	0.23948	0.87334	0.28204	0.083
Mof_C 	C 	0.22786	0.87411	0.27823	-0.069
Mof_H 	H 	0.243	0.8755	0.2887	0.009
Mof_S 	S 	0.17844	0.87304	0.26461	0.1
Mof_C 	C 	0.17283	0.87367	0.19835	-0.047
Mof_H 	H 	0.1561	0.8743	0.2062	-0.01
Mof_S 	S 	0.16302	0.37371	0.70816	0.099
Mof_O 	O 	0.21262	0.37491	0.83434	-0.376
Mof_O 	O 	0.17279	0.36178	0.82019	-0.386
Mof_O 	O 	0.12992	0.37442	0.6612	-0.374
Mof_C 	C 	0.19598	0.36942	0.81735	0.383
Mof_C 	C 	0.20456	0.37206	0.7889	-0.051
Mof_C 	C 	0.22985	0.37438	0.74933	0.002
Mof_C 	C 	0.20318	0.37414	0.74223	-0.002
Mof_C 	C 	0.19605	0.37441	0.71545	-0.008
Mof_C 	C 	0.19056	0.3707	0.76866	-0.078
Mof_H 	H 	0.1722	0.3692	0.7701	0.004
Mof_S 	S 	0.23948	0.37334	0.78204	0.083
Mof_C 	C 	0.22786	0.37411	0.77823	-0.069
Mof_H 	H 	0.243	0.3755	0.7887	0.009
Mof_S 	S 	0.17844	0.37304	0.76461	0.1
Mof_C 	C 	0.17283	0.37367	0.69835	-0.047
Mof_H 	H 	0.1561	0.3743	0.7062	-0.01
Mof_S 	S 	0.66302	0.87371	0.70816	0.099
Mof_O 	O 	0.71262	0.87491	0.83434	-0.376
Mof_O 	O 	0.67279	0.86178	0.82019	-0.386
Mof_O 	O 	0.62992	0.87442	0.6612	-0.374
Mof_C 	C 	0.69598	0.86942	0.81735	0.383
Mof_C 	C 	0.70456	0.87206	0.7889	-0.051
Mof_C 	C 	0.72985	0.87438	0.74933	0.002
Mof_C 	C 	0.70318	0.87414	0.74223	-0.002
Mof_C 	C 	0.69605	0.87441	0.71545	-0.008
Mof_C 	C 	0.69056	0.8707	0.76866	-0.078
Mof_H 	H 	0.6722	0.8692	0.7701	0.004
Mof_S 	S 	0.73948	0.87334	0.78204	0.083
Mof_C 	C 	0.72786	0.87411	0.77823	-0.069
Mof_H 	H 	0.743	0.8755	0.7887	0.009
Mof_S 	S 	0.67844	0.87304	0.76461	0.1
Mof_C 	C 	0.67283	0.87367	0.69835	-0.047
Mof_H 	H 	0.6561	0.8743	0.7062	-0.01
Mof_S 	S 	0.66302	0.37371	0.20816	0.099
Mof_O 	O 	0.71262	0.37491	0.33434	-0.376
Mof_O 	O 	0.67279	0.36178	0.32019	-0.386
Mof_O 	O 	0.62992	0.37442	0.1612	-0.374
Mof_C 	C 	0.69598	0.36942	0.31735	0.383
Mof_C 	C 	0.70456	0.37206	0.2889	-0.051
Mof_C 	C 	0.72985	0.37438	0.24933	0.002
Mof_C 	C 	0.70318	0.37414	0.24223	-0.002
Mof_C 	C 	0.69605	0.37441	0.21545	-0.008
Mof_C 	C 	0.69056	0.3707	0.26866	-0.078
Mof_H 	H 	0.6722	0.3692	0.2701	0.004
Mof_S 	S 	0.73948	0.37334	0.28204	0.083
Mof_C 	C 	0.72786	0.37411	0.27823	-0.069
Mof_H 	H 	0.743	0.3755	0.2887	0.009
Mof_S 	S 	0.67844	0.37304	0.26461	0.1
Mof_C 	C 	0.67283	0.37367	0.19835	-0.047
Mof_H 	H 	0.6561	0.3743	0.2062	-0.01
Mof_S 	S 	0.66302	0.37629	0.54184	0.099
Mof_O 	O 	0.71262	0.37509	0.41566	-0.376
Mof_O 	O 	0.67279	0.38822	0.42981	-0.386
Mof_O 	O 	0.62992	0.37558	0.5888	-0.374
Mof_C 	C 	0.69598	0.38058	0.43265	0.383
Mof_C 	C 	0.70456	0.37794	0.4611	-0.051
Mof_C 	C 	0.72985	0.37562	0.50067	0.002
Mof_C 	C 	0.70318	0.37586	0.50777	-0.002
Mof_C 	C 	0.69605	0.37559	0.53455	-0.008
Mof_C 	C 	0.69056	0.3793	0.48134	-0.078
Mof_H 	H 	0.6722	0.3808	0.4799	0.004
Mof_S 	S 	0.73948	0.37666	0.46796	0.083
Mof_C 	C 	0.72786	0.37589	0.47177	-0.069
Mof_H 	H 	0.743	0.3745	0.4613	0.009
Mof_S 	S 	0.67844	0.37696	0.48539	0.1
Mof_C 	C 	0.67283	0.37633	0.55165	-0.047
Mof_H 	H 	0.6561	0.3757	0.5438	-0.01
Mof_S 	S 	0.66302	0.87629	0.04184	0.099
Mof_O 	O 	0.71262	0.87509	0.91566	-0.376
Mof_O 	O 	0.67279	0.88822	0.92981	-0.386
Mof_O 	O 	0.62992	0.87558	0.0888	-0.374
Mof_C 	C 	0.69598	0.88058	0.93265	0.383
Mof_C 	C 	0.70456	0.87794	0.9611	-0.051
Mof_C 	C 	0.72985	0.87562	0.00067	0.002
Mof_C 	C 	0.70318	0.87586	0.00777	-0.002
Mof_C 	C 	0.69605	0.87559	0.03455	-0.008
Mof_C 	C 	0.69056	0.8793	0.98134	-0.078
Mof_H 	H 	0.6722	0.8808	0.9799	0.004
Mof_S 	S 	0.73948	0.87666	0.96796	0.083
Mof_C 	C 	0.72786	0.87589	0.97177	-0.069
Mof_H 	H 	0.743	0.8745	0.9613	0.009
Mof_S 	S 	0.67844	0.87696	0.98539	0.1
Mof_C 	C 	0.67283	0.87633	0.05165	-0.047
Mof_H 	H 	0.6561	0.8757	0.0438	-0.01
Mof_S 	S 	0.16302	0.37629	0.04184	0.099
Mof_O 	O 	0.21262	0.37509	0.91566	-0.376
Mof_O 	O 	0.17279	0.38822	0.92981	-0.386
Mof_O 	O 	0.12992	0.37558	0.0888	-0.374
Mof_C 	C 	0.19598	0.38058	0.93265	0.383
Mof_C 	C 	0.20456	0.37794	0.9611	-0.051
Mof_C 	C 	0.22985	0.37562	0.00067	0.002
Mof_C 	C 	0.20318	0.37586	0.00777	-0.002
Mof_C 	C 	0.19605	0.37559	0.03455	-0.008
Mof_C 	C 	0.19056	0.3793	0.98134	-0.078
Mof_H 	H 	0.1722	0.3808	0.9799	0.004
Mof_S 	S 	0.23948	0.37666	0.96796	0.083
Mof_C 	C 	0.22786	0.37589	0.97177	-0.069
Mof_H 	H 	0.243	0.3745	0.9613	0.009
Mof_S 	S 	0.17844	0.37696	0.98539	0.1
Mof_C 	C 	0.17283	0.37633	0.05165	-0.047
Mof_H 	H 	0.1561	0.3757	0.0438	-0.01
Mof_S 	S 	0.16302	0.87629	0.54184	0.099
Mof_O 	O 	0.21262	0.87509	0.41566	-0.376
Mof_O 	O 	0.17279	0.88822	0.42981	-0.386
Mof_O 	O 	0.12992	0.87558	0.5888	-0.374
Mof_C 	C 	0.19598	0.88058	0.43265	0.383
Mof_C 	C 	0.20456	0.87794	0.4611	-0.051
Mof_C 	C 	0.22985	0.87562	0.50067	0.002
Mof_C 	C 	0.20318	0.87586	0.50777	-0.002
Mof_C 	C 	0.19605	0.87559	0.53455	-0.008
Mof_C 	C 	0.19056	0.8793	0.48134	-0.078
Mof_H 	H 	0.1722	0.8808	0.4799	0.004
Mof_S 	S 	0.23948	0.87666	0.46796	0.083
Mof_C 	C 	0.22786	0.87589	0.47177	-0.069
Mof_H 	H 	0.243	0.8745	0.4613	0.009
Mof_S 	S 	0.17844	0.87696	0.48539	0.1
Mof_C 	C 	0.17283	0.87633	0.55165	-0.047
Mof_H 	H 	0.1561	0.8757	0.5438	-0.01
Mof_S 	S 	0.58698	0.37371	0.04184	0.099
Mof_O 	O 	0.53738	0.37491	0.91566	-0.376
Mof_O 	O 	0.57721	0.36178	0.92981	-0.386
Mof_O 	O 	0.62008	0.37442	0.0888	-0.374
Mof_C 	C 	0.55402	0.36942	0.93265	0.383
Mof_C 	C 	0.54544	0.37206	0.9611	-0.051
Mof_C 	C 	0.52015	0.37438	0.00067	0.002
Mof_C 	C 	0.54682	0.37414	0.00777	-0.002
Mof_C 	C 	0.55395	0.37441	0.03455	-0.008
Mof_C 	C 	0.55944	0.3707	0.98134	-0.078
Mof_H 	H 	0.5778	0.3692	0.9799	0.004
Mof_S 	S 	0.51052	0.37334	0.96796	0.083
Mof_C 	C 	0.52214	0.37411	0.97177	-0.069
Mof_H 	H 	0.507	0.3755	0.9613	0.009
Mof_S 	S 	0.57156	0.37304	0.98539	0.1
Mof_C 	C 	0.57717	0.37367	0.05165	-0.047
Mof_H 	H 	0.5939	0.3743	0.0438	-0.01
Mof_S 	S 	0.58698	0.87371	0.54184	0.099
Mof_O 	O 	0.53738	0.87491	0.41566	-0.376
Mof_O 	O 	0.57721	0.86178	0.42981	-0.386
Mof_O 	O 	0.62008	0.87442	0.5888	-0.374
Mof_C 	C 	0.55402	0.86942	0.43265	0.383
Mof_C 	C 	0.54544	0.87206	0.4611	-0.051
Mof_C 	C 	0.52015	0.87438	0.50067	0.002
Mof_C 	C 	0.54682	0.87414	0.50777	-0.002
Mof_C 	C 	0.55395	0.87441	0.53455	-0.008
Mof_C 	C 	0.55944	0.8707	0.48134	-0.078
Mof_H 	H 	0.5778	0.8692	0.4799	0.004
Mof_S 	S 	0.51052	0.87334	0.46796	0.083
Mof_C 	C 	0.52214	0.87411	0.47177	-0.069
Mof_H 	H 	0.507	0.8755	0.4613	0.009
Mof_S 	S 	0.57156	0.87304	0.48539	0.1
Mof_C 	C 	0.57717	0.87367	0.55165	-0.047
Mof_H 	H 	0.5939	0.8743	0.5438	-0.01
Mof_S 	S 	0.08698	0.37371	0.54184	0.099
Mof_O 	O 	0.03738	0.37491	0.41566	-0.376
Mof_O 	O 	0.07721	0.36178	0.42981	-0.386
Mof_O 	O 	0.12008	0.37442	0.5888	-0.374
Mof_C 	C 	0.05402	0.36942	0.43265	0.383
Mof_C 	C 	0.04544	0.37206	0.4611	-0.051
Mof_C 	C 	0.02015	0.37438	0.50067	0.002
Mof_C 	C 	0.04682	0.37414	0.50777	-0.002
Mof_C 	C 	0.05395	0.37441	0.53455	-0.008
Mof_C 	C 	0.05944	0.3707	0.48134	-0.078
Mof_H 	H 	0.0778	0.3692	0.4799	0.004
Mof_S 	S 	0.01052	0.37334	0.46796	0.083
Mof_C 	C 	0.02214	0.37411	0.47177	-0.069
Mof_H 	H 	0.007	0.3755	0.4613	0.009
Mof_S 	S 	0.07156	0.37304	0.48539	0.1
Mof_C 	C 	0.07717	0.37367	0.55165	-0.047
Mof_H 	H 	0.0939	0.3743	0.5438	-0.01
Mof_S 	S 	0.08698	0.87371	0.04184	0.099
Mof_O 	O 	0.03738	0.87491	0.91566	-0.376
Mof_O 	O 	0.07721	0.86178	0.92981	-0.386
Mof_O 	O 	0.12008	0.87442	0.0888	-0.374
Mof_C 	C 	0.05402	0.86942	0.93265	0.383
Mof_C 	C 	0.04544	0.87206	0.9611	-0.051
Mof_C 	C 	0.02015	0.87438	0.00067	0.002
Mof_C 	C 	0.04682	0.87414	0.00777	-0.002
Mof_C 	C 	0.05395	0.87441	0.03455	-0.008
Mof_C 	C 	0.05944	0.8707	0.98134	-0.078
Mof_H 	H 	0.0778	0.8692	0.9799	0.004
Mof_S 	S 	0.01052	0.87334	0.96796	0.083
Mof_C 	C 	0.02214	0.87411	0.97177	-0.069
Mof_H 	H 	0.007	0.8755	0.9613	0.009
Mof_S 	S 	0.07156	0.87304	0.98539	0.1
Mof_C 	C 	0.07717	0.87367	0.05165	-0.047
Mof_H 	H 	0.0939	0.8743	0.0438	-0.01
Mof_S 	S 	0.08698	0.87629	0.70816	0.099
Mof_O 	O 	0.03738	0.87509	0.83434	-0.376
Mof_O 	O 	0.07721	0.88822	0.82019	-0.386
Mof_O 	O 	0.12008	0.87558	0.6612	-0.374
Mof_C 	C 	0.05402	0.88058	0.81735	0.383
Mof_C 	C 	0.04544	0.87794	0.7889	-0.051
Mof_C 	C 	0.02015	0.87562	0.74933	0.002
Mof_C 	C 	0.04682	0.87586	0.74223	-0.002
Mof_C 	C 	0.05395	0.87559	0.71545	-0.008
Mof_C 	C 	0.05944	0.8793	0.76866	-0.078
Mof_H 	H 	0.0778	0.8808	0.7701	0.004
Mof_S 	S 	0.01052	0.87666	0.78204	0.083
Mof_C 	C 	0.02214	0.87589	0.77823	-0.069
Mof_H 	H 	0.007	0.8745	0.7887	0.009
Mof_S 	S 	0.07156	0.87696	0.76461	0.1
Mof_C 	C 	0.07717	0.87633	0.69835	-0.047
Mof_H 	H 	0.0939	0.8757	0.7062	-0.01
Mof_S 	S 	0.08698	0.37629	0.20816	0.099
Mof_O 	O 	0.03738	0.37509	0.33434	-0.376
Mof_O 	O 	0.07721	0.38822	0.32019	-0.386
Mof_O 	O 	0.12008	0.37558	0.1612	-0.374
Mof_C 	C 	0.05402	0.38058	0.31735	0.383
Mof_C 	C 	0.04544	0.37794	0.2889	-0.051
Mof_C 	C 	0.02015	0.37562	0.24933	0.002
Mof_C 	C 	0.04682	0.37586	0.24223	-0.002
Mof_C 	C 	0.05395	0.37559	0.21545	-0.008
Mof_C 	C 	0.05944	0.3793	0.26866	-0.078
Mof_H 	H 	0.0778	0.3808	0.2701	0.004
Mof_S 	S 	0.01052	0.37666	0.28204	0.083
Mof_C 	C 	0.02214	0.37589	0.27823	-0.069
Mof_H 	H 	0.007	0.3745	0.2887	0.009
Mof_S 	S 	0.07156	0.37696	0.26461	0.1
Mof_C 	C 	0.07717	0.37633	0.19835	-0.047
Mof_H 	H 	0.0939	0.3757	0.2062	-0.01
Mof_S 	S 	0.58698	0.87629	0.20816	0.099
Mof_O 	O 	0.53738	0.87509	0.33434	-0.376
Mof_O 	O 	0.57721	0.88822	0.32019	-0.386
Mof_O 	O 	0.62008	0.87558	0.1612	-0.374
Mof_C 	C 	0.55402	0.88058	0.31735	0.383
Mof_C 	C 	0.54544	0.87794	0.2889	-0.051
Mof_C 	C 	0.52015	0.87562	0.24933	0.002
Mof_C 	C 	0.54682	0.87586	0.24223	-0.002
Mof_C 	C 	0.55395	0.87559	0.21545	-0.008
Mof_C 	C 	0.55944	0.8793	0.26866	-0.078
Mof_H 	H 	0.5778	0.8808	0.2701	0.004
Mof_S 	S 	0.51052	0.87666	0.28204	0.083
Mof_C 	C 	0.52214	0.87589	0.27823	-0.069
Mof_H 	H 	0.507	0.8745	0.2887	0.009
Mof_S 	S 	0.57156	0.87696	0.26461	0.1
Mof_C 	C 	0.57717	0.87633	0.19835	-0.047
Mof_H 	H 	0.5939	0.8757	0.2062	-0.01
Mof_S 	S 	0.58698	0.37629	0.70816	0.099
Mof_O 	O 	0.53738	0.37509	0.83434	-0.376
Mof_O 	O 	0.57721	0.38822	0.82019	-0.386
Mof_O 	O 	0.62008	0.37558	0.6612	-0.374
Mof_C 	C 	0.55402	0.38058	0.81735	0.383
Mof_C 	C 	0.54544	0.37794	0.7889	-0.051
Mof_C 	C 	0.52015	0.37562	0.74933	0.002
Mof_C 	C 	0.54682	0.37586	0.74223	-0.002
Mof_C 	C 	0.55395	0.37559	0.71545	-0.008
Mof_C 	C 	0.55944	0.3793	0.76866	-0.078
Mof_H 	H 	0.5778	0.3808	0.7701	0.004
Mof_S 	S 	0.51052	0.37666	0.78204	0.083
Mof_C 	C 	0.52214	0.37589	0.77823	-0.069
Mof_H 	H 	0.507	0.3745	0.7887	0.009
Mof_S 	S 	0.57156	0.37696	0.76461	0.1
Mof_C 	C 	0.57717	0.37633	0.69835	-0.047
Mof_H 	H 	0.5939	0.3757	0.7062	-0.01
Mof_Fe	Fe	0.875	0.875	0.0397	0.887
Mof_O 	O 	0.875	0.875	0.08021	-0.435
Mof_Fe	Fe	0.875	0.375	0.5397	0.887
Mof_O 	O 	0.875	0.375	0.58021	-0.435
Mof_Fe	Fe	0.375	0.375	0.7103	0.887
Mof_O 	O 	0.375	0.375	0.66979	-0.435
Mof_Fe	Fe	0.875	0.875	0.7103	0.887
Mof_O 	O 	0.875	0.875	0.66979	-0.435
Mof_Fe	Fe	0.375	0.875	0.2103	0.887
Mof_O 	O 	0.375	0.875	0.16979	-0.435
Mof_Fe	Fe	0.0397	0.875	0.875	0.887
Mof_O 	O 	0.08021	0.875	0.875	-0.435
Mof_Fe	Fe	0.0397	0.375	0.375	0.887
Mof_O 	O 	0.08021	0.375	0.375	-0.435
Mof_Fe	Fe	0.5397	0.875	0.375	0.887
Mof_O 	O 	0.58021	0.875	0.375	-0.435
Mof_Fe	Fe	0.7103	0.375	0.375	0.887
Mof_O 	O 	0.66979	0.375	0.375	-0.435
Mof_Fe	Fe	0.7103	0.875	0.875	0.887
Mof_O 	O 	0.66979	0.875	0.875	-0.435
Mof_Fe	Fe	0.2103	0.375	0.875	0.887
Mof_O 	O 	0.16979	0.375	0.875	-0.435
Mof_Fe	Fe	0.875	0.0397	0.875	0.887
Mof_O 	O 	0.875	0.08021	0.875	-0.435
Mof_Fe	Fe	0.375	0.5397	0.875	0.887
Mof_O 	O 	0.375	0.58021	0.875	-0.435
Mof_Fe	Fe	0.375	0.0397	0.375	0.887
Mof_O 	O 	0.375	0.08021	0.375	-0.435
Mof_Fe	Fe	0.375	0.7103	0.375	0.887
Mof_O 	O 	0.375	0.66979	0.375	-0.435
Mof_Fe	Fe	0.875	0.2103	0.375	0.887
Mof_O 	O 	0.875	0.16979	0.375	-0.435
Mof_Fe	Fe	0.875	0.7103	0.875	0.887
Mof_O 	O 	0.875	0.66979	0.875	-0.435
Mof_Fe	Fe	0.625	0.125	0.4603	0.887
Mof_O 	O 	0.625	0.125	0.41979	-0.435
Mof_Fe	Fe	0.625	0.625	0.9603	0.887
Mof_O 	O 	0.625	0.625	0.91979	-0.435
Mof_Fe	Fe	0.125	0.125	0.9603	0.887
Mof_O 	O 	0.125	0.125	0.91979	-0.435
Mof_Fe	Fe	0.125	0.625	0.7897	0.887
Mof_O 	O 	0.125	0.625	0.83021	-0.435
Mof_Fe	Fe	0.125	0.125	0.2897	0.887
Mof_O 	O 	0.125	0.125	0.33021	-0.435
Mof_Fe	Fe	0.625	0.625	0.2897	0.887
Mof_O 	O 	0.625	0.625	0.33021	-0.435
Mof_Fe	Fe	0.625	0.2897	0.625	0.887
Mof_O 	O 	0.625	0.33021	0.625	-0.435
Mof_Fe	Fe	0.625	0.7897	0.125	0.887
Mof_O 	O 	0.625	0.83021	0.125	-0.435
Mof_Fe	Fe	0.125	0.9603	0.125	0.887
Mof_O 	O 	0.125	0.91979	0.125	-0.435
Mof_Fe	Fe	0.125	0.4603	0.625	0.887
Mof_O 	O 	0.125	0.41979	0.625	-0.435
Mof_Fe	Fe	0.625	0.9603	0.625	0.887
Mof_O 	O 	0.625	0.91979	0.625	-0.435
Mof_Fe	Fe	0.7897	0.125	0.625	0.887
Mof_O 	O 	0.83021	0.125	0.625	-0.435
Mof_Fe	Fe	0.2897	0.625	0.625	0.887
Mof_O 	O 	0.33021	0.625	0.625	-0.435
Mof_Fe	Fe	0.2897	0.125	0.125	0.887
Mof_O 	O 	0.33021	0.125	0.125	-0.435
Mof_Fe	Fe	0.4603	0.625	0.125	0.887
Mof_O 	O 	0.41979	0.625	0.125	-0.435
Mof_Fe	Fe	0.9603	0.125	0.125	0.887
Mof_O 	O 	0.91979	0.125	0.125	-0.435
Mof_Fe	Fe	0.9603	0.625	0.625	0.887
Mof_O 	O 	0.91979	0.625	0.625	-0.435
Mof_Fe	Fe	0.125	0.625	0.4603	0.887
Mof_O 	O 	0.125	0.625	0.41979	-0.435
Mof_Fe	Fe	0.625	0.125	0.7897	0.887
Mof_O 	O 	0.625	0.125	0.83021	-0.435
Mof_Fe	Fe	0.4603	0.125	0.625	0.887
Mof_O 	O 	0.41979	0.125	0.625	-0.435
Mof_Fe	Fe	0.7897	0.625	0.125	0.887
Mof_O 	O 	0.83021	0.625	0.125	-0.435
Mof_Fe	Fe	0.625	0.4603	0.125	0.887
Mof_O 	O 	0.625	0.41979	0.125	-0.435
Mof_Fe	Fe	0.125	0.7897	0.625	0.887
Mof_O 	O 	0.125	0.83021	0.625	-0.435
Mof_Fe	Fe	0.125	0.2897	0.125	0.887
Mof_O 	O 	0.125	0.33021	0.125	-0.435
Mof_Fe	Fe	0.375	0.875	0.5397	0.887
Mof_O 	O 	0.375	0.875	0.58021	-0.435
Mof_Fe	Fe	0.375	0.375	0.0397	0.887
Mof_O 	O 	0.375	0.375	0.08021	-0.435
Mof_Fe	Fe	0.875	0.375	0.2103	0.887
Mof_O 	O 	0.875	0.375	0.16979	-0.435
Mof_Fe	Fe	0.375	0.2103	0.875	0.887
Mof_O 	O 	0.375	0.16979	0.875	-0.435
Mof_Fe	Fe	0.875	0.5397	0.375	0.887
Mof_O 	O 	0.875	0.58021	0.375	-0.435
Mof_Fe	Fe	0.2103	0.875	0.375	0.887
Mof_O 	O 	0.16979	0.875	0.375	-0.435
Mof_Fe	Fe	0.5397	0.375	0.875	0.887
Mof_O 	O 	0.58021	0.375	0.875	-0.435
Mof_Fe	Fe	0.85054	0.89946	0.10066	0.905
Mof_Fe	Fe	0.85054	0.39946	0.60066	0.905
Mof_Fe	Fe	0.89946	0.35054	0.60066	0.905
Mof_Fe	Fe	0.39946	0.35054	0.10066	0.905
Mof_Fe	Fe	0.39946	0.39946	0.64934	0.905
Mof_Fe	Fe	0.39946	0.89946	0.14934	0.905
Mof_Fe	Fe	0.89946	0.39946	0.14934	0.905
Mof_Fe	Fe	0.89946	0.89946	0.64934	0.905
Mof_Fe	Fe	0.35054	0.85054	0.14934	0.905
Mof_Fe	Fe	0.35054	0.35054	0.64934	0.905
Mof_Fe	Fe	0.10066	0.85054	0.89946	0.905
Mof_Fe	Fe	0.10066	0.35054	0.39946	0.905
Mof_Fe	Fe	0.60066	0.89946	0.35054	0.905
Mof_Fe	Fe	0.60066	0.39946	0.85054	0.905
Mof_Fe	Fe	0.64934	0.39946	0.39946	0.905
Mof_Fe	Fe	0.64934	0.89946	0.89946	0.905
Mof_Fe	Fe	0.14934	0.39946	0.89946	0.905
Mof_Fe	Fe	0.14934	0.89946	0.39946	0.905
Mof_Fe	Fe	0.14934	0.35054	0.85054	0.905
Mof_Fe	Fe	0.64934	0.35054	0.35054	0.905
Mof_Fe	Fe	0.89946	0.10066	0.85054	0.905
Mof_Fe	Fe	0.39946	0.10066	0.35054	0.905
Mof_Fe	Fe	0.35054	0.60066	0.89946	0.905
Mof_Fe	Fe	0.35054	0.10066	0.39946	0.905
Mof_Fe	Fe	0.39946	0.64934	0.39946	0.905
Mof_Fe	Fe	0.39946	0.14934	0.89946	0.905
Mof_Fe	Fe	0.89946	0.64934	0.89946	0.905
Mof_Fe	Fe	0.89946	0.14934	0.39946	0.905
Mof_Fe	Fe	0.85054	0.14934	0.35054	0.905
Mof_Fe	Fe	0.85054	0.64934	0.85054	0.905
Mof_Fe	Fe	0.64946	0.10054	0.39934	0.905
Mof_Fe	Fe	0.64946	0.60054	0.89934	0.905
Mof_Fe	Fe	0.10054	0.14946	0.89934	0.905
Mof_Fe	Fe	0.60054	0.14946	0.39934	0.905
Mof_Fe	Fe	0.14946	0.64946	0.85066	0.905
Mof_Fe	Fe	0.14946	0.14946	0.35066	0.905
Mof_Fe	Fe	0.60054	0.60054	0.35066	0.905
Mof_Fe	Fe	0.60054	0.10054	0.85066	0.905
Mof_Fe	Fe	0.10054	0.60054	0.85066	0.905
Mof_Fe	Fe	0.10054	0.10054	0.35066	0.905
Mof_Fe	Fe	0.60054	0.35066	0.60054	0.905
Mof_Fe	Fe	0.60054	0.85066	0.10054	0.905
Mof_Fe	Fe	0.10054	0.35066	0.10054	0.905
Mof_Fe	Fe	0.10054	0.85066	0.60054	0.905
Mof_Fe	Fe	0.64946	0.85066	0.14946	0.905
Mof_Fe	Fe	0.64946	0.35066	0.64946	0.905
Mof_Fe	Fe	0.14946	0.89934	0.10054	0.905
Mof_Fe	Fe	0.14946	0.39934	0.60054	0.905
Mof_Fe	Fe	0.10054	0.39934	0.64946	0.905
Mof_Fe	Fe	0.60054	0.39934	0.14946	0.905
Mof_Fe	Fe	0.85066	0.14946	0.64946	0.905
Mof_Fe	Fe	0.35066	0.14946	0.14946	0.905
Mof_Fe	Fe	0.35066	0.60054	0.60054	0.905
Mof_Fe	Fe	0.35066	0.10054	0.10054	0.905
Mof_Fe	Fe	0.85066	0.60054	0.10054	0.905
Mof_Fe	Fe	0.85066	0.10054	0.60054	0.905
Mof_Fe	Fe	0.39934	0.64946	0.10054	0.905
Mof_Fe	Fe	0.39934	0.14946	0.60054	0.905
Mof_Fe	Fe	0.89934	0.10054	0.14946	0.905
Mof_Fe	Fe	0.89934	0.60054	0.64946	0.905
Mof_Fe	Fe	0.14946	0.10054	0.89934	0.905
Mof_Fe	Fe	0.14946	0.60054	0.39934	0.905
Mof_Fe	Fe	0.10054	0.64946	0.39934	0.905
Mof_Fe	Fe	0.60054	0.64946	0.89934	0.905
Mof_Fe	Fe	0.64946	0.14946	0.85066	0.905
Mof_Fe	Fe	0.64946	0.64946	0.35066	0.905
Mof_Fe	Fe	0.89934	0.14946	0.10054	0.905
Mof_Fe	Fe	0.89934	0.64946	0.60054	0.905
Mof_Fe	Fe	0.39934	0.10054	0.64946	0.905
Mof_Fe	Fe	0.39934	0.60054	0.14946	0.905
Mof_Fe	Fe	0.85066	0.64946	0.14946	0.905
Mof_Fe	Fe	0.35066	0.64946	0.64946	0.905
Mof_Fe	Fe	0.10054	0.89934	0.14946	0.905
Mof_Fe	Fe	0.60054	0.89934	0.64946	0.905
Mof_Fe	Fe	0.64946	0.39934	0.10054	0.905
Mof_Fe	Fe	0.64946	0.89934	0.60054	0.905
Mof_Fe	Fe	0.14946	0.85066	0.64946	0.905
Mof_Fe	Fe	0.14946	0.35066	0.14946	0.905
Mof_Fe	Fe	0.35054	0.89946	0.60066	0.905
Mof_Fe	Fe	0.35054	0.39946	0.10066	0.905
Mof_Fe	Fe	0.89946	0.85054	0.10066	0.905
Mof_Fe	Fe	0.39946	0.85054	0.60066	0.905
Mof_Fe	Fe	0.85054	0.35054	0.14934	0.905
Mof_Fe	Fe	0.85054	0.85054	0.64934	0.905
Mof_Fe	Fe	0.35054	0.14934	0.85054	0.905
Mof_Fe	Fe	0.35054	0.64934	0.35054	0.905
Mof_Fe	Fe	0.85054	0.10066	0.89946	0.905
Mof_Fe	Fe	0.85054	0.60066	0.39946	0.905
Mof_Fe	Fe	0.89946	0.60066	0.35054	0.905
Mof_Fe	Fe	0.39946	0.60066	0.85054	0.905
Mof_Fe	Fe	0.14934	0.85054	0.35054	0.905
Mof_Fe	Fe	0.64934	0.85054	0.85054	0.905
Mof_Fe	Fe	0.60066	0.35054	0.89946	0.905
Mof_Fe	Fe	0.60066	0.85054	0.39946	0.905
Mof_Fe	Fe	0.10066	0.89946	0.85054	0.905
Mof_Fe	Fe	0.10066	0.39946	0.35054	0.905
Mof_C 	C 	0.67386	0.87653	0.07614	-0.074
Mof_C 	C 	0.65314	0.8759	0.09686	0.384
Mof_C 	C 	0.17386	0.87653	0.57614	-0.074
Mof_C 	C 	0.15314	0.8759	0.59686	0.384
Mof_C 	C 	0.17386	0.37653	0.07614	-0.074
Mof_C 	C 	0.15314	0.3759	0.09686	0.384
Mof_C 	C 	0.07614	0.37347	0.57614	-0.074
Mof_C 	C 	0.09686	0.3741	0.59686	0.384
Mof_C 	C 	0.07614	0.87347	0.07614	-0.074
Mof_C 	C 	0.09686	0.8741	0.09686	0.384
Mof_C 	C 	0.57614	0.87347	0.57614	-0.074
Mof_C 	C 	0.59686	0.8741	0.59686	0.384
Mof_C 	C 	0.57614	0.37653	0.67386	-0.074
Mof_C 	C 	0.59686	0.3759	0.65314	0.384
Mof_C 	C 	0.57614	0.87653	0.17386	-0.074
Mof_C 	C 	0.59686	0.8759	0.15314	0.384
Mof_C 	C 	0.07614	0.37653	0.17386	-0.074
Mof_C 	C 	0.09686	0.3759	0.15314	0.384
Mof_C 	C 	0.17386	0.87347	0.17386	-0.074
Mof_C 	C 	0.15314	0.8741	0.15314	0.384
Mof_C 	C 	0.17386	0.37347	0.67386	-0.074
Mof_C 	C 	0.15314	0.3741	0.65314	0.384
Mof_C 	C 	0.67386	0.87347	0.67386	-0.074
Mof_C 	C 	0.65314	0.8741	0.65314	0.384
Mof_C 	C 	0.67386	0.37347	0.17386	-0.074
Mof_C 	C 	0.65314	0.3741	0.15314	0.384
Mof_C 	C 	0.07614	0.67386	0.87653	-0.074
Mof_C 	C 	0.09686	0.65314	0.8759	0.384
Mof_C 	C 	0.07614	0.17386	0.37653	-0.074
Mof_C 	C 	0.09686	0.15314	0.3759	0.384
Mof_C 	C 	0.57614	0.07614	0.37347	-0.074
Mof_C 	C 	0.59686	0.09686	0.3741	0.384
Mof_C 	C 	0.57614	0.57614	0.87347	-0.074
Mof_C 	C 	0.59686	0.59686	0.8741	0.384
Mof_C 	C 	0.67386	0.57614	0.37653	-0.074
Mof_C 	C 	0.65314	0.59686	0.3759	0.384
Mof_C 	C 	0.17386	0.57614	0.87653	-0.074
Mof_C 	C 	0.15314	0.59686	0.8759	0.384
Mof_C 	C 	0.17386	0.07614	0.37653	-0.074
Mof_C 	C 	0.15314	0.09686	0.3759	0.384
Mof_C 	C 	0.17386	0.17386	0.87347	-0.074
Mof_C 	C 	0.15314	0.15314	0.8741	0.384
Mof_C 	C 	0.17386	0.67386	0.37347	-0.074
Mof_C 	C 	0.15314	0.65314	0.3741	0.384
Mof_C 	C 	0.67386	0.17386	0.37347	-0.074
Mof_C 	C 	0.65314	0.15314	0.3741	0.384
Mof_C 	C 	0.67386	0.67386	0.87347	-0.074
Mof_C 	C 	0.65314	0.65314	0.8741	0.384
Mof_C 	C 	0.87653	0.07614	0.67386	-0.074
Mof_C 	C 	0.8759	0.09686	0.65314	0.384
Mof_C 	C 	0.87653	0.57614	0.17386	-0.074
Mof_C 	C 	0.8759	0.59686	0.15314	0.384
Mof_C 	C 	0.37653	0.07614	0.17386	-0.074
Mof_C 	C 	0.3759	0.09686	0.15314	0.384
Mof_C 	C 	0.37347	0.57614	0.07614	-0.074
Mof_C 	C 	0.3741	0.59686	0.09686	0.384
Mof_C 	C 	0.87347	0.57614	0.57614	-0.074
Mof_C 	C 	0.8741	0.59686	0.59686	0.384
Mof_C 	C 	0.37653	0.67386	0.57614	-0.074
Mof_C 	C 	0.3759	0.65314	0.59686	0.384
Mof_C 	C 	0.37653	0.17386	0.07614	-0.074
Mof_C 	C 	0.3759	0.15314	0.09686	0.384
Mof_C 	C 	0.87347	0.17386	0.17386	-0.074
Mof_C 	C 	0.8741	0.15314	0.15314	0.384
Mof_C 	C 	0.87347	0.67386	0.67386	-0.074
Mof_C 	C 	0.8741	0.65314	0.65314	0.384
Mof_C 	C 	0.37347	0.17386	0.67386	-0.074
Mof_C 	C 	0.3741	0.15314	0.65314	0.384
Mof_C 	C 	0.37347	0.67386	0.17386	-0.074
Mof_C 	C 	0.3741	0.65314	0.15314	0.384
Mof_C 	C 	0.62653	0.92386	0.42386	-0.074
Mof_C 	C 	0.6259	0.90314	0.40314	0.384
Mof_C 	C 	0.12653	0.92386	0.92386	-0.074
Mof_C 	C 	0.1259	0.90314	0.90314	0.384
Mof_C 	C 	0.12347	0.32614	0.92386	-0.074
Mof_C 	C 	0.1241	0.34686	0.90314	0.384
Mof_C 	C 	0.12347	0.82614	0.42386	-0.074
Mof_C 	C 	0.1241	0.84686	0.40314	0.384
Mof_C 	C 	0.12653	0.82614	0.82614	-0.074
Mof_C 	C 	0.1259	0.84686	0.84686	0.384
Mof_C 	C 	0.12653	0.32614	0.32614	-0.074
Mof_C 	C 	0.1259	0.34686	0.34686	0.384
Mof_C 	C 	0.62653	0.82614	0.32614	-0.074
Mof_C 	C 	0.6259	0.84686	0.34686	0.384
Mof_C 	C 	0.62653	0.32614	0.82614	-0.074
Mof_C 	C 	0.6259	0.34686	0.84686	0.384
Mof_C 	C 	0.62347	0.42386	0.32614	-0.074
Mof_C 	C 	0.6241	0.40314	0.34686	0.384
Mof_C 	C 	0.62347	0.92386	0.82614	-0.074
Mof_C 	C 	0.6241	0.90314	0.84686	0.384
Mof_C 	C 	0.42386	0.32614	0.62347	-0.074
Mof_C 	C 	0.40314	0.34686	0.6241	0.384
Mof_C 	C 	0.42386	0.82614	0.12347	-0.074
Mof_C 	C 	0.40314	0.84686	0.1241	0.384
Mof_C 	C 	0.82614	0.82614	0.12653	-0.074
Mof_C 	C 	0.84686	0.84686	0.1259	0.384
Mof_C 	C 	0.82614	0.32614	0.62653	-0.074
Mof_C 	C 	0.84686	0.34686	0.6259	0.384
Mof_C 	C 	0.32614	0.82614	0.62653	-0.074
Mof_C 	C 	0.34686	0.84686	0.6259	0.384
Mof_C 	C 	0.32614	0.32614	0.12653	-0.074
Mof_C 	C 	0.34686	0.34686	0.1259	0.384
Mof_C 	C 	0.32614	0.92386	0.12347	-0.074
Mof_C 	C 	0.34686	0.90314	0.1241	0.384
Mof_C 	C 	0.82614	0.92386	0.62347	-0.074
Mof_C 	C 	0.84686	0.90314	0.6241	0.384
Mof_C 	C 	0.92386	0.42386	0.62653	-0.074
Mof_C 	C 	0.90314	0.40314	0.6259	0.384
Mof_C 	C 	0.92386	0.92386	0.12653	-0.074
Mof_C 	C 	0.90314	0.90314	0.1259	0.384
Mof_C 	C 	0.82614	0.12653	0.82614	-0.074
Mof_C 	C 	0.84686	0.1259	0.84686	0.384
Mof_C 	C 	0.82614	0.62653	0.32614	-0.074
Mof_C 	C 	0.84686	0.6259	0.34686	0.384
Mof_C 	C 	0.32614	0.12653	0.32614	-0.074
Mof_C 	C 	0.34686	0.1259	0.34686	0.384
Mof_C 	C 	0.32614	0.62653	0.82614	-0.074
Mof_C 	C 	0.34686	0.6259	0.84686	0.384
Mof_C 	C 	0.32614	0.62347	0.42386	-0.074
Mof_C 	C 	0.34686	0.6241	0.40314	0.384
Mof_C 	C 	0.82614	0.62347	0.92386	-0.074
Mof_C 	C 	0.84686	0.6241	0.90314	0.384
Mof_C 	C 	0.42386	0.62653	0.92386	-0.074
Mof_C 	C 	0.40314	0.6259	0.90314	0.384
Mof_C 	C 	0.42386	0.12653	0.42386	-0.074
Mof_C 	C 	0.40314	0.1259	0.40314	0.384
Mof_C 	C 	0.92386	0.12653	0.92386	-0.074
Mof_C 	C 	0.90314	0.1259	0.90314	0.384
Mof_C 	C 	0.92386	0.12347	0.32614	-0.074
Mof_C 	C 	0.90314	0.1241	0.34686	0.384
Mof_C 	C 	0.92386	0.62347	0.82614	-0.074
Mof_C 	C 	0.90314	0.6241	0.84686	0.384
Mof_C 	C 	0.32614	0.12347	0.92386	-0.074
Mof_C 	C 	0.34686	0.1241	0.90314	0.384
Mof_C 	C 	0.82614	0.12347	0.42386	-0.074
Mof_C 	C 	0.84686	0.1241	0.40314	0.384
Mof_C 	C 	0.92386	0.62653	0.42386	-0.074
Mof_C 	C 	0.90314	0.6259	0.40314	0.384
Mof_C 	C 	0.42386	0.62347	0.32614	-0.074
Mof_C 	C 	0.40314	0.6241	0.34686	0.384
Mof_C 	C 	0.42386	0.12347	0.82614	-0.074
Mof_C 	C 	0.40314	0.1241	0.84686	0.384
Mof_C 	C 	0.92386	0.32614	0.12347	-0.074
Mof_C 	C 	0.90314	0.34686	0.1241	0.384
Mof_C 	C 	0.92386	0.82614	0.62347	-0.074
Mof_C 	C 	0.90314	0.84686	0.6241	0.384
Mof_C 	C 	0.42386	0.92386	0.62653	-0.074
Mof_C 	C 	0.40314	0.90314	0.6259	0.384
Mof_C 	C 	0.42386	0.42386	0.12653	-0.074
Mof_C 	C 	0.40314	0.40314	0.1259	0.384
Mof_C 	C 	0.32614	0.42386	0.62347	-0.074
Mof_C 	C 	0.34686	0.40314	0.6241	0.384
Mof_C 	C 	0.82614	0.42386	0.12347	-0.074
Mof_C 	C 	0.84686	0.40314	0.1241	0.384
Mof_C 	C 	0.12347	0.92386	0.32614	-0.074
Mof_C 	C 	0.1241	0.90314	0.34686	0.384
Mof_C 	C 	0.12347	0.42386	0.82614	-0.074
Mof_C 	C 	0.1241	0.40314	0.84686	0.384
Mof_C 	C 	0.62653	0.42386	0.92386	-0.074
Mof_C 	C 	0.6259	0.40314	0.90314	0.384
Mof_C 	C 	0.12653	0.42386	0.42386	-0.074
Mof_C 	C 	0.1259	0.40314	0.40314	0.384
Mof_C 	C 	0.62347	0.32614	0.42386	-0.074
Mof_C 	C 	0.6241	0.34686	0.40314	0.384
Mof_C 	C 	0.62347	0.82614	0.92386	-0.074
Mof_C 	C 	0.6241	0.84686	0.90314	0.384
Mof_C 	C 	0.37347	0.07614	0.57614	-0.074
Mof_C 	C 	0.3741	0.09686	0.59686	0.384
Mof_C 	C 	0.87347	0.07614	0.07614	-0.074
Mof_C 	C 	0.8741	0.09686	0.09686	0.384
Mof_C 	C 	0.87653	0.67386	0.07614	-0.074
Mof_C 	C 	0.8759	0.65314	0.09686	0.384
Mof_C 	C 	0.87653	0.17386	0.57614	-0.074
Mof_C 	C 	0.8759	0.15314	0.59686	0.384
Mof_C 	C 	0.37653	0.57614	0.67386	-0.074
Mof_C 	C 	0.3759	0.59686	0.65314	0.384
Mof_C 	C 	0.57614	0.67386	0.37653	-0.074
Mof_C 	C 	0.59686	0.65314	0.3759	0.384
Mof_C 	C 	0.57614	0.17386	0.87653	-0.074
Mof_C 	C 	0.59686	0.15314	0.8759	0.384
Mof_C 	C 	0.67386	0.07614	0.87653	-0.074
Mof_C 	C 	0.65314	0.09686	0.8759	0.384
Mof_C 	C 	0.07614	0.57614	0.37347	-0.074
Mof_C 	C 	0.09686	0.59686	0.3741	0.384
Mof_C 	C 	0.07614	0.07614	0.87347	-0.074
Mof_C 	C 	0.09686	0.09686	0.8741	0.384
Mof_C 	C 	0.67386	0.37653	0.57614	-0.074
Mof_C 	C 	0.65314	0.3759	0.59686	0.384
Mof_C 	C 	0.57614	0.37347	0.07614	-0.074
Mof_C 	C 	0.59686	0.3741	0.09686	0.384
Mof_C 	C 	0.07614	0.87653	0.67386	-0.074
Mof_C 	C 	0.09686	0.8759	0.65314	0.384
_end
