data_functionalizedCrystal
_audit_creation_method	'EQeq! by Chris Wilmer'
_symmetry_space_group_name_H-M	'P1'
_symmetry_Int_Tables_number	1
_symmetry_cell_setting	triclinic
loop_
_symmetry_equiv_pos_as_xyz
  x,y,z
_cell_length_a	21.209
_cell_length_b	22.825
_cell_length_c	18.1999
_cell_angle_alpha	90
_cell_angle_beta	90
_cell_angle_gamma	90
loop_
_atom_site_label
_atom_site_type_symbol
_atom_site_fract_x
_atom_site_fract_y
_atom_site_fract_z
_atom_site_charge
Mof_C 	C 	0.8919	0.5455	0.6523	0.409
Mof_C 	C 	0.9016	0.5161	0.7249	-0.144
Mof_C 	C 	0.8835	0.5451	0.791	0.056
Mof_H 	H 	0.8639	0.5815	0.7895	0.006
Mof_C 	C 	0.8958	0.51786	0.8576	-0.125
Mof_H 	H 	0.884	0.5372	0.9004	0.089
Mof_C 	C 	0.92465	0.46326	0.8643	0.054
Mof_C 	C 	0.9396	0.4333	0.7944	-0.121
Mof_H 	H 	0.957	0.3959	0.7951	0.078
Mof_C 	C 	0.9276	0.46038	0.7289	0.061
Mof_H 	H 	0.9373	0.4408	0.6855	0.023
Mof_C 	C 	0.9468	0.438	0.9321	0.062
Mof_C 	C 	0.9954	0.3982	0.9331	0.053
Mof_H 	H 	0.0118	0.3837	0.8893	0.032
Mof_C 	C 	0.4882	0.7985	0.1631	0.444
Mof_C 	C 	0.5238	0.7836	0.2291	-0.206
Mof_C 	C 	0.5866	0.7919	0.2346	0.102
Mof_H 	H 	0.6091	0.8055	0.1942	-0.003
Mof_C 	C 	0.6186	0.77998	0.3013	-0.17
Mof_H 	H 	0.6619	0.7854	0.3044	0.09
Mof_C 	C 	0.5856	0.7604	0.3616	0.088
Mof_C 	C 	0.5186	0.7523	0.3568	-0.152
Mof_H 	H 	0.4948	0.7406	0.3972	0.087
Mof_C 	C 	0.4906	0.7629	0.2876	0.091
Mof_H 	H 	0.4478	0.7554	0.2818	0.018
Mof_C 	C 	0.6168	0.7506	0.4328	-0.017
Mof_C 	C 	0.6816	0.7366	0.4322	-0.022
Mof_H 	H 	0.7031	0.7316	0.3881	0.044
Mof_C 	C 	0.2809	0.6983	0.3429	0.464
Mof_C 	C 	0.2769	0.6666	0.2711	-0.195
Mof_C 	C 	0.3068	0.6879	0.2091	0.089
Mof_H 	H 	0.3321	0.7211	0.2125	0.008
Mof_C 	C 	0.2995	0.6599	0.1417	-0.159
Mof_H 	H 	0.3193	0.6747	0.1001	0.074
Mof_C 	C 	0.2624	0.6098	0.1368	0.093
Mof_C 	C 	0.2319	0.5881	0.1995	-0.165
Mof_H 	H 	0.2069	0.5547	0.1965	0.092
Mof_C 	C 	0.2393	0.617	0.2663	0.093
Mof_H 	H 	0.219	0.6029	0.308	0.004
Mof_C 	C 	0.2604	0.5764	0.0673	-0.037
Mof_C 	C 	0.2524	0.5142	0.0632	0.044
Mof_H 	H 	0.2493	0.4932	0.1068	0.02
Mof_N 	N 	0.1248	0.594	0.5398	-0.017
Mof_O 	O 	0.86726	0.59601	0.6544	-0.525
Mof_O 	O 	0.91558	0.52121	0.59923	-0.535
Mof_O 	O 	0.10247	0.32639	0.94051	-0.411
Mof_O 	O 	0.43091	0.78861	0.15634	-0.532
Mof_O 	O 	0.52091	0.81396	0.10949	-0.55
Mof_O 	O 	0.80646	0.70206	0.56185	-0.531
Mof_O 	O 	0.24722	0.6866	0.39252	-0.564
Mof_O 	O 	0.32281	0.73773	0.34783	-0.467
Mof_O 	O 	0.23237	0.39472	0.94057	-0.423
Mof_O 	O 	0.0724	0.5994	0.491	-0.153
Mof_Zn	Zn	0.88305	0.66359	0.58911	1.206
Mof_Zn	Zn	0.19509	0.31198	0.91957	1.218
Mof_C 	C 	0.1081	0.4545	0.6523	0.41
Mof_C 	C 	0.0984	0.4839	0.7249	-0.143
Mof_C 	C 	0.1165	0.4549	0.791	0.057
Mof_H 	H 	0.1361	0.4185	0.7895	0.007
Mof_C 	C 	0.1042	0.48214	0.8576	-0.124
Mof_H 	H 	0.116	0.4628	0.9004	0.09
Mof_C 	C 	0.07535	0.53674	0.8643	0.055
Mof_C 	C 	0.0604	0.5667	0.7944	-0.12
Mof_H 	H 	0.043	0.6041	0.7951	0.079
Mof_C 	C 	0.0724	0.53962	0.7289	0.062
Mof_H 	H 	0.0627	0.5592	0.6855	0.024
Mof_C 	C 	0.0532	0.562	0.9321	0.063
Mof_C 	C 	0.0046	0.6018	0.9331	0.053
Mof_H 	H 	0.9882	0.6163	0.8893	0.032
Mof_C 	C 	0.5118	0.2015	0.1631	0.444
Mof_C 	C 	0.4762	0.2164	0.2291	-0.206
Mof_C 	C 	0.4134	0.2081	0.2346	0.102
Mof_H 	H 	0.3909	0.1945	0.1942	-0.003
Mof_C 	C 	0.3814	0.22002	0.3013	-0.17
Mof_H 	H 	0.3381	0.2146	0.3044	0.09
Mof_C 	C 	0.4144	0.2396	0.3616	0.088
Mof_C 	C 	0.4814	0.2477	0.3568	-0.152
Mof_H 	H 	0.5052	0.2594	0.3972	0.087
Mof_C 	C 	0.5094	0.2371	0.2876	0.091
Mof_H 	H 	0.5522	0.2446	0.2818	0.018
Mof_C 	C 	0.3832	0.2494	0.4328	-0.017
Mof_C 	C 	0.3184	0.2634	0.4322	-0.022
Mof_H 	H 	0.2969	0.2684	0.3881	0.044
Mof_C 	C 	0.7191	0.3017	0.3429	0.464
Mof_C 	C 	0.7231	0.3334	0.2711	-0.195
Mof_C 	C 	0.6932	0.3121	0.2091	0.089
Mof_H 	H 	0.6679	0.2789	0.2125	0.008
Mof_C 	C 	0.7005	0.3401	0.1417	-0.159
Mof_H 	H 	0.6807	0.3253	0.1001	0.074
Mof_C 	C 	0.7376	0.3902	0.1368	0.093
Mof_C 	C 	0.7681	0.4119	0.1995	-0.165
Mof_H 	H 	0.7931	0.4453	0.1965	0.092
Mof_C 	C 	0.7607	0.383	0.2663	0.093
Mof_H 	H 	0.781	0.3971	0.308	0.004
Mof_C 	C 	0.7396	0.4236	0.0673	-0.037
Mof_C 	C 	0.7476	0.4858	0.0632	0.044
Mof_H 	H 	0.7507	0.5068	0.1068	0.02
Mof_N 	N 	0.8752	0.406	0.5398	-0.017
Mof_O 	O 	0.13274	0.40399	0.6544	-0.525
Mof_O 	O 	0.08442	0.47879	0.59923	-0.535
Mof_O 	O 	0.89753	0.67361	0.94051	-0.411
Mof_O 	O 	0.56909	0.21139	0.15634	-0.532
Mof_O 	O 	0.47909	0.18604	0.10949	-0.55
Mof_O 	O 	0.19354	0.29794	0.56185	-0.531
Mof_O 	O 	0.75278	0.3134	0.39252	-0.564
Mof_O 	O 	0.67719	0.26227	0.34783	-0.467
Mof_O 	O 	0.76763	0.60528	0.94057	-0.423
Mof_O 	O 	0.9276	0.4006	0.491	-0.153
Mof_Zn	Zn	0.11695	0.33641	0.58911	1.206
Mof_Zn	Zn	0.80491	0.68802	0.91957	1.218
Mof_C 	C 	0.6081	0.0455	0.8477	0.407
Mof_C 	C 	0.5984	0.0161	0.7751	-0.139
Mof_C 	C 	0.6165	0.0451	0.709	0.056
Mof_H 	H 	0.6361	0.0815	0.7105	0.007
Mof_C 	C 	0.6042	0.01786	0.6424	-0.13
Mof_H 	H 	0.616	0.0372	0.5996	0.074
Mof_C 	C 	0.57535	0.96326	0.6357	0.065
Mof_C 	C 	0.5604	0.9333	0.7056	-0.124
Mof_H 	H 	0.543	0.8959	0.7049	0.08
Mof_C 	C 	0.5724	0.96038	0.7711	0.062
Mof_H 	H 	0.5627	0.9408	0.8145	0.03
Mof_C 	C 	0.5532	0.938	0.5679	-0.004
Mof_C 	C 	0.5046	0.8982	0.5669	-0.021
Mof_H 	H 	0.4882	0.8837	0.6107	0.05
Mof_C 	C 	0.0118	0.2985	0.3369	0.436
Mof_C 	C 	0.9762	0.2836	0.2709	-0.189
Mof_C 	C 	0.9134	0.2919	0.2654	0.085
Mof_H 	H 	0.8909	0.3055	0.3058	0.005
Mof_C 	C 	0.8814	0.27998	0.1987	-0.151
Mof_H 	H 	0.8381	0.2854	0.1956	0.083
Mof_C 	C 	0.9144	0.2604	0.1384	0.063
Mof_C 	C 	0.9814	0.2523	0.1432	-0.132
Mof_H 	H 	0.0052	0.2406	0.1028	0.073
Mof_C 	C 	0.0094	0.2629	0.2124	0.073
Mof_H 	H 	0.0522	0.2554	0.2182	0.023
Mof_C 	C 	0.8832	0.2506	0.0672	0.014
Mof_C 	C 	0.8184	0.2366	0.0678	-0.032
Mof_H 	H 	0.7969	0.2316	0.1119	0.046
Mof_C 	C 	0.2191	0.1983	0.1571	0.466
Mof_C 	C 	0.2231	0.1666	0.2289	-0.202
Mof_C 	C 	0.1932	0.1879	0.2909	0.096
Mof_H 	H 	0.1679	0.2211	0.2875	0.006
Mof_C 	C 	0.2005	0.1599	0.3583	-0.167
Mof_H 	H 	0.1807	0.1747	0.3999	0.083
Mof_C 	C 	0.2376	0.1098	0.3632	0.103
Mof_C 	C 	0.2681	0.0881	0.3005	-0.172
Mof_H 	H 	0.2931	0.0547	0.3035	0.094
Mof_C 	C 	0.2607	0.117	0.2337	0.099
Mof_H 	H 	0.281	0.1029	0.192	0
Mof_C 	C 	0.2396	0.0764	0.4327	-0.044
Mof_C 	C 	0.2476	0.0142	0.4368	0.025
Mof_H 	H 	0.2507	0.9932	0.3932	0.027
Mof_N 	N 	0.3752	0.094	0.9602	0.06
Mof_O 	O 	0.63274	0.09601	0.8456	-0.512
Mof_O 	O 	0.58442	0.02121	0.90077	-0.504
Mof_O 	O 	0.39753	0.82639	0.55949	-0.481
Mof_O 	O 	0.06909	0.28861	0.34366	-0.525
Mof_O 	O 	0.97909	0.31396	0.39051	-0.535
Mof_O 	O 	0.69354	0.20206	0.93815	-0.459
Mof_O 	O 	0.25278	0.1866	0.10748	-0.572
Mof_O 	O 	0.17719	0.23773	0.15217	-0.473
Mof_O 	O 	0.26763	0.89472	0.55943	-0.492
Mof_O 	O 	0.4276	0.0994	0.009	0.087
Mof_Zn	Zn	0.61695	0.16359	0.91089	1.218
Mof_Zn	Zn	0.30491	0.81198	0.58043	1.206
Mof_C 	C 	0.3919	0.9545	0.8477	0.407
Mof_C 	C 	0.4016	0.9839	0.7751	-0.139
Mof_C 	C 	0.3835	0.9549	0.709	0.056
Mof_H 	H 	0.3639	0.9185	0.7105	0.007
Mof_C 	C 	0.3958	0.98214	0.6424	-0.13
Mof_H 	H 	0.384	0.9628	0.5996	0.074
Mof_C 	C 	0.42465	0.03674	0.6357	0.065
Mof_C 	C 	0.4396	0.0667	0.7056	-0.124
Mof_H 	H 	0.457	0.1041	0.7049	0.08
Mof_C 	C 	0.4276	0.03962	0.7711	0.062
Mof_H 	H 	0.4373	0.0592	0.8145	0.03
Mof_C 	C 	0.4468	0.062	0.5679	-0.004
Mof_C 	C 	0.4954	0.1018	0.5669	-0.021
Mof_H 	H 	0.5118	0.1163	0.6107	0.05
Mof_C 	C 	0.9882	0.7015	0.3369	0.436
Mof_C 	C 	0.0238	0.7164	0.2709	-0.189
Mof_C 	C 	0.0866	0.7081	0.2654	0.085
Mof_H 	H 	0.1091	0.6945	0.3058	0.005
Mof_C 	C 	0.1186	0.72002	0.1987	-0.151
Mof_H 	H 	0.1619	0.7146	0.1956	0.083
Mof_C 	C 	0.0856	0.7396	0.1384	0.063
Mof_C 	C 	0.0186	0.7477	0.1432	-0.132
Mof_H 	H 	0.9948	0.7594	0.1028	0.073
Mof_C 	C 	0.9906	0.7371	0.2124	0.073
Mof_H 	H 	0.9478	0.7446	0.2182	0.023
Mof_C 	C 	0.1168	0.7494	0.0672	0.014
Mof_C 	C 	0.1816	0.7634	0.0678	-0.032
Mof_H 	H 	0.2031	0.7684	0.1119	0.046
Mof_C 	C 	0.7809	0.8017	0.1571	0.466
Mof_C 	C 	0.7769	0.8334	0.2289	-0.202
Mof_C 	C 	0.8068	0.8121	0.2909	0.096
Mof_H 	H 	0.8321	0.7789	0.2875	0.006
Mof_C 	C 	0.7995	0.8401	0.3583	-0.167
Mof_H 	H 	0.8193	0.8253	0.3999	0.083
Mof_C 	C 	0.7624	0.8902	0.3632	0.103
Mof_C 	C 	0.7319	0.9119	0.3005	-0.172
Mof_H 	H 	0.7069	0.9453	0.3035	0.094
Mof_C 	C 	0.7393	0.883	0.2337	0.099
Mof_H 	H 	0.719	0.8971	0.192	0
Mof_C 	C 	0.7604	0.9236	0.4327	-0.044
Mof_C 	C 	0.7524	0.9858	0.4368	0.025
Mof_H 	H 	0.7493	0.0068	0.3932	0.027
Mof_N 	N 	0.6248	0.906	0.9602	0.06
Mof_O 	O 	0.36726	0.90399	0.8456	-0.512
Mof_O 	O 	0.41558	0.97879	0.90077	-0.504
Mof_O 	O 	0.60247	0.17361	0.55949	-0.481
Mof_O 	O 	0.93091	0.71139	0.34366	-0.525
Mof_O 	O 	0.02091	0.68604	0.39051	-0.535
Mof_O 	O 	0.30646	0.79794	0.93815	-0.459
Mof_O 	O 	0.74722	0.8134	0.10748	-0.572
Mof_O 	O 	0.82281	0.76227	0.15217	-0.473
Mof_O 	O 	0.73237	0.10528	0.55943	-0.492
Mof_O 	O 	0.5724	0.9006	0.009	0.087
Mof_Zn	Zn	0.38305	0.83641	0.91089	1.218
Mof_Zn	Zn	0.69509	0.18802	0.58043	1.206
Mof_C 	C 	0.1081	0.4545	0.3477	0.41
Mof_C 	C 	0.0984	0.4839	0.2751	-0.143
Mof_C 	C 	0.1165	0.4549	0.209	0.055
Mof_H 	H 	0.1361	0.4185	0.2105	0.006
Mof_C 	C 	0.1042	0.48214	0.1424	-0.125
Mof_H 	H 	0.116	0.4628	0.0996	0.069
Mof_C 	C 	0.07535	0.53674	0.1357	0.056
Mof_C 	C 	0.0604	0.5667	0.2056	-0.123
Mof_H 	H 	0.043	0.6041	0.2049	0.079
Mof_C 	C 	0.0724	0.53962	0.2711	0.063
Mof_H 	H 	0.0627	0.5592	0.3145	0.024
Mof_C 	C 	0.0532	0.562	0.0679	0.015
Mof_C 	C 	0.0046	0.6018	0.0669	-0.017
Mof_H 	H 	0.9882	0.6163	0.1107	0.049
Mof_C 	C 	0.5118	0.2015	0.8369	0.433
Mof_C 	C 	0.4762	0.2164	0.7709	-0.188
Mof_C 	C 	0.4134	0.2081	0.7654	0.092
Mof_H 	H 	0.3909	0.1945	0.8058	0.009
Mof_C 	C 	0.3814	0.22002	0.6987	-0.159
Mof_H 	H 	0.3381	0.2146	0.6956	0.088
Mof_C 	C 	0.4144	0.2396	0.6384	0.083
Mof_C 	C 	0.4814	0.2477	0.6432	-0.143
Mof_H 	H 	0.5052	0.2594	0.6028	0.085
Mof_C 	C 	0.5094	0.2371	0.7124	0.082
Mof_H 	H 	0.5522	0.2446	0.7182	0.023
Mof_C 	C 	0.3832	0.2494	0.5672	-0.015
Mof_C 	C 	0.3184	0.2634	0.5678	-0.023
Mof_H 	H 	0.2969	0.2684	0.6119	0.045
Mof_C 	C 	0.7191	0.3017	0.6571	0.465
Mof_C 	C 	0.7231	0.3334	0.7289	-0.195
Mof_C 	C 	0.6932	0.3121	0.7909	0.095
Mof_H 	H 	0.6679	0.2789	0.7875	0.01
Mof_C 	C 	0.7005	0.3401	0.8583	-0.157
Mof_H 	H 	0.6807	0.3253	0.8999	0.1
Mof_C 	C 	0.7376	0.3902	0.8632	0.098
Mof_C 	C 	0.7681	0.4119	0.8005	-0.162
Mof_H 	H 	0.7931	0.4453	0.8035	0.093
Mof_C 	C 	0.7607	0.383	0.7337	0.095
Mof_H 	H 	0.781	0.3971	0.692	0.004
Mof_C 	C 	0.7396	0.4236	0.9327	0.014
Mof_C 	C 	0.7476	0.4858	0.9368	0.127
Mof_H 	H 	0.7507	0.5068	0.8932	0.003
Mof_N 	N 	0.8752	0.406	0.4602	-0.018
Mof_O 	O 	0.13274	0.40399	0.3456	-0.526
Mof_O 	O 	0.08442	0.47879	0.40077	-0.535
Mof_O 	O 	0.89753	0.67361	0.05949	-0.472
Mof_O 	O 	0.56909	0.21139	0.84366	-0.513
Mof_O 	O 	0.47909	0.18604	0.89051	-0.504
Mof_O 	O 	0.19354	0.29794	0.43815	-0.532
Mof_O 	O 	0.75278	0.3134	0.60748	-0.564
Mof_O 	O 	0.67719	0.26227	0.65217	-0.466
Mof_O 	O 	0.76763	0.60528	0.05943	-0.49
Mof_O 	O 	0.9276	0.4006	0.509	-0.153
Mof_Zn	Zn	0.11695	0.33641	0.41089	1.206
Mof_Zn	Zn	0.80491	0.68802	0.08043	1.201
Mof_C 	C 	0.8919	0.5455	0.3477	0.41
Mof_C 	C 	0.9016	0.5161	0.2751	-0.143
Mof_C 	C 	0.8835	0.5451	0.209	0.055
Mof_H 	H 	0.8639	0.5815	0.2105	0.006
Mof_C 	C 	0.8958	0.51786	0.1424	-0.125
Mof_H 	H 	0.884	0.5372	0.0996	0.069
Mof_C 	C 	0.92465	0.46326	0.1357	0.056
Mof_C 	C 	0.9396	0.4333	0.2056	-0.123
Mof_H 	H 	0.957	0.3959	0.2049	0.079
Mof_C 	C 	0.9276	0.46038	0.2711	0.063
Mof_H 	H 	0.9373	0.4408	0.3145	0.024
Mof_C 	C 	0.9468	0.438	0.0679	0.015
Mof_C 	C 	0.9954	0.3982	0.0669	-0.017
Mof_H 	H 	0.0118	0.3837	0.1107	0.049
Mof_C 	C 	0.4882	0.7985	0.8369	0.433
Mof_C 	C 	0.5238	0.7836	0.7709	-0.188
Mof_C 	C 	0.5866	0.7919	0.7654	0.092
Mof_H 	H 	0.6091	0.8055	0.8058	0.009
Mof_C 	C 	0.6186	0.77998	0.6987	-0.159
Mof_H 	H 	0.6619	0.7854	0.6956	0.088
Mof_C 	C 	0.5856	0.7604	0.6384	0.083
Mof_C 	C 	0.5186	0.7523	0.6432	-0.143
Mof_H 	H 	0.4948	0.7406	0.6028	0.085
Mof_C 	C 	0.4906	0.7629	0.7124	0.082
Mof_H 	H 	0.4478	0.7554	0.7182	0.023
Mof_C 	C 	0.6168	0.7506	0.5672	-0.015
Mof_C 	C 	0.6816	0.7366	0.5678	-0.023
Mof_H 	H 	0.7031	0.7316	0.6119	0.045
Mof_C 	C 	0.2809	0.6983	0.6571	0.465
Mof_C 	C 	0.2769	0.6666	0.7289	-0.195
Mof_C 	C 	0.3068	0.6879	0.7909	0.095
Mof_H 	H 	0.3321	0.7211	0.7875	0.01
Mof_C 	C 	0.2995	0.6599	0.8583	-0.157
Mof_H 	H 	0.3193	0.6747	0.8999	0.1
Mof_C 	C 	0.2624	0.6098	0.8632	0.098
Mof_C 	C 	0.2319	0.5881	0.8005	-0.162
Mof_H 	H 	0.2069	0.5547	0.8035	0.093
Mof_C 	C 	0.2393	0.617	0.7337	0.095
Mof_H 	H 	0.219	0.6029	0.692	0.004
Mof_C 	C 	0.2604	0.5764	0.9327	0.014
Mof_C 	C 	0.2524	0.5142	0.9368	0.127
Mof_H 	H 	0.2493	0.4932	0.8932	0.003
Mof_N 	N 	0.1248	0.594	0.4602	-0.018
Mof_O 	O 	0.86726	0.59601	0.3456	-0.526
Mof_O 	O 	0.91558	0.52121	0.40077	-0.535
Mof_O 	O 	0.10247	0.32639	0.05949	-0.472
Mof_O 	O 	0.43091	0.78861	0.84366	-0.513
Mof_O 	O 	0.52091	0.81396	0.89051	-0.504
Mof_O 	O 	0.80646	0.70206	0.43815	-0.532
Mof_O 	O 	0.24722	0.6866	0.60748	-0.564
Mof_O 	O 	0.32281	0.73773	0.65217	-0.466
Mof_O 	O 	0.23237	0.39472	0.05943	-0.49
Mof_O 	O 	0.0724	0.5994	0.509	-0.153
Mof_Zn	Zn	0.88305	0.66359	0.41089	1.206
Mof_Zn	Zn	0.19509	0.31198	0.08043	1.201
Mof_C 	C 	0.3919	0.9545	0.1523	0.414
Mof_C 	C 	0.4016	0.9839	0.2249	-0.152
Mof_C 	C 	0.3835	0.9549	0.291	0.063
Mof_H 	H 	0.3639	0.9185	0.2895	0.003
Mof_C 	C 	0.3958	0.98214	0.3576	-0.136
Mof_H 	H 	0.384	0.9628	0.4004	0.076
Mof_C 	C 	0.42465	0.03674	0.3643	0.07
Mof_C 	C 	0.4396	0.0667	0.2944	-0.133
Mof_H 	H 	0.457	0.1041	0.2951	0.083
Mof_C 	C 	0.4276	0.03962	0.2289	0.072
Mof_H 	H 	0.4373	0.0592	0.1855	0.017
Mof_C 	C 	0.4468	0.062	0.4321	-0.005
Mof_C 	C 	0.4954	0.1018	0.4331	-0.02
Mof_H 	H 	0.5118	0.1163	0.3893	0.049
Mof_C 	C 	0.9882	0.7015	0.6631	0.436
Mof_C 	C 	0.0238	0.7164	0.7291	-0.187
Mof_C 	C 	0.0866	0.7081	0.7346	0.085
Mof_H 	H 	0.1091	0.6945	0.6942	0.006
Mof_C 	C 	0.1186	0.72002	0.8013	-0.144
Mof_H 	H 	0.1619	0.7146	0.8044	0.084
Mof_C 	C 	0.0856	0.7396	0.8616	0.063
Mof_C 	C 	0.0186	0.7477	0.8568	-0.125
Mof_H 	H 	0.9948	0.7594	0.8972	0.096
Mof_C 	C 	0.9906	0.7371	0.7876	0.075
Mof_H 	H 	0.9478	0.7446	0.7818	0.026
Mof_C 	C 	0.1168	0.7494	0.9328	0.069
Mof_C 	C 	0.1816	0.7634	0.9322	0.04
Mof_H 	H 	0.2031	0.7684	0.8881	0.032
Mof_C 	C 	0.7809	0.8017	0.8429	0.457
Mof_C 	C 	0.7769	0.8334	0.7711	-0.186
Mof_C 	C 	0.8068	0.8121	0.7091	0.089
Mof_H 	H 	0.8321	0.7789	0.7125	0.011
Mof_C 	C 	0.7995	0.8401	0.6417	-0.159
Mof_H 	H 	0.8193	0.8253	0.6001	0.081
Mof_C 	C 	0.7624	0.8902	0.6368	0.099
Mof_C 	C 	0.7319	0.9119	0.6995	-0.162
Mof_H 	H 	0.7069	0.9453	0.6965	0.093
Mof_C 	C 	0.7393	0.883	0.7663	0.091
Mof_H 	H 	0.719	0.8971	0.808	0.012
Mof_C 	C 	0.7604	0.9236	0.5673	-0.041
Mof_C 	C 	0.7524	0.9858	0.5632	0.024
Mof_H 	H 	0.7493	0.0068	0.6068	0.03
Mof_N 	N 	0.6248	0.906	0.0398	-0.063
Mof_O 	O 	0.36726	0.90399	0.1544	-0.531
Mof_O 	O 	0.41558	0.97879	0.09923	-0.55
Mof_O 	O 	0.60247	0.17361	0.44051	-0.482
Mof_O 	O 	0.93091	0.71139	0.65634	-0.524
Mof_O 	O 	0.02091	0.68604	0.60949	-0.535
Mof_O 	O 	0.30646	0.79794	0.06185	-0.522
Mof_O 	O 	0.74722	0.8134	0.89252	-0.529
Mof_O 	O 	0.82281	0.76227	0.84783	-0.453
Mof_O 	O 	0.73237	0.10528	0.44057	-0.493
Mof_O 	O 	0.5724	0.9006	0.991	-0.388
Mof_Zn	Zn	0.38305	0.83641	0.08911	1.202
Mof_Zn	Zn	0.69509	0.18802	0.41957	1.205
Mof_C 	C 	0.6081	0.0455	0.1523	0.414
Mof_C 	C 	0.5984	0.0161	0.2249	-0.152
Mof_C 	C 	0.6165	0.0451	0.291	0.063
Mof_H 	H 	0.6361	0.0815	0.2895	0.003
Mof_C 	C 	0.6042	0.01786	0.3576	-0.136
Mof_H 	H 	0.616	0.0372	0.4004	0.076
Mof_C 	C 	0.57535	0.96326	0.3643	0.07
Mof_C 	C 	0.5604	0.9333	0.2944	-0.133
Mof_H 	H 	0.543	0.8959	0.2951	0.083
Mof_C 	C 	0.5724	0.96038	0.2289	0.072
Mof_H 	H 	0.5627	0.9408	0.1855	0.017
Mof_C 	C 	0.5532	0.938	0.4321	-0.005
Mof_C 	C 	0.5046	0.8982	0.4331	-0.02
Mof_H 	H 	0.4882	0.8837	0.3893	0.049
Mof_C 	C 	0.0118	0.2985	0.6631	0.436
Mof_C 	C 	0.9762	0.2836	0.7291	-0.187
Mof_C 	C 	0.9134	0.2919	0.7346	0.085
Mof_H 	H 	0.8909	0.3055	0.6942	0.006
Mof_C 	C 	0.8814	0.27998	0.8013	-0.144
Mof_H 	H 	0.8381	0.2854	0.8044	0.084
Mof_C 	C 	0.9144	0.2604	0.8616	0.063
Mof_C 	C 	0.9814	0.2523	0.8568	-0.125
Mof_H 	H 	0.0052	0.2406	0.8972	0.096
Mof_C 	C 	0.0094	0.2629	0.7876	0.075
Mof_H 	H 	0.0522	0.2554	0.7818	0.026
Mof_C 	C 	0.8832	0.2506	0.9328	0.069
Mof_C 	C 	0.8184	0.2366	0.9322	0.04
Mof_H 	H 	0.7969	0.2316	0.8881	0.032
Mof_C 	C 	0.2191	0.1983	0.8429	0.457
Mof_C 	C 	0.2231	0.1666	0.7711	-0.186
Mof_C 	C 	0.1932	0.1879	0.7091	0.089
Mof_H 	H 	0.1679	0.2211	0.7125	0.011
Mof_C 	C 	0.2005	0.1599	0.6417	-0.159
Mof_H 	H 	0.1807	0.1747	0.6001	0.081
Mof_C 	C 	0.2376	0.1098	0.6368	0.099
Mof_C 	C 	0.2681	0.0881	0.6995	-0.162
Mof_H 	H 	0.2931	0.0547	0.6965	0.093
Mof_C 	C 	0.2607	0.117	0.7663	0.091
Mof_H 	H 	0.281	0.1029	0.808	0.012
Mof_C 	C 	0.2396	0.0764	0.5673	-0.041
Mof_C 	C 	0.2476	0.0142	0.5632	0.024
Mof_H 	H 	0.2507	0.9932	0.6068	0.03
Mof_N 	N 	0.3752	0.094	0.0398	-0.063
Mof_O 	O 	0.63274	0.09601	0.1544	-0.531
Mof_O 	O 	0.58442	0.02121	0.09923	-0.55
Mof_O 	O 	0.39753	0.82639	0.44051	-0.482
Mof_O 	O 	0.06909	0.28861	0.65634	-0.524
Mof_O 	O 	0.97909	0.31396	0.60949	-0.535
Mof_O 	O 	0.69354	0.20206	0.06185	-0.522
Mof_O 	O 	0.25278	0.1866	0.89252	-0.529
Mof_O 	O 	0.17719	0.23773	0.84783	-0.453
Mof_O 	O 	0.26763	0.89472	0.44057	-0.493
Mof_O 	O 	0.4276	0.0994	0.991	-0.388
Mof_Zn	Zn	0.61695	0.16359	0.08911	1.202
Mof_Zn	Zn	0.30491	0.81198	0.41957	1.205
Mof_C 	C 	0.9209	0.4578	-0	-0.157
Mof_H 	H 	0.8869	0.4837	-0	0.066
Mof_C 	C 	0.0198	0.3796	-0	-0.153
Mof_C 	C 	0.0776	0.3407	-0	0.311
Mof_C 	C 	0.2575	0.6085	-0	-0.13
Mof_H 	H 	0.2539	0.6491	-0	0.057
Mof_C 	C 	0.2493	0.4849	-0	-0.242
Mof_C 	C 	0.2399	0.4232	-0	0.343
Mof_O 	O 	0.2279	0.2746	-0	-0.941
Mof_H 	H 	0.2643	0.29	-0	0.07
Mof_C 	C 	0.0791	0.5422	-0	-0.157
Mof_H 	H 	0.1131	0.5163	-0	0.066
Mof_C 	C 	0.9802	0.6204	-0	-0.153
Mof_C 	C 	0.9224	0.6593	-0	0.311
Mof_C 	C 	0.7425	0.3915	-0	-0.13
Mof_H 	H 	0.7461	0.3509	-0	0.057
Mof_C 	C 	0.7507	0.5151	-0	-0.242
Mof_C 	C 	0.7601	0.5768	-0	0.343
Mof_O 	O 	0.7721	0.7254	-0	-0.941
Mof_H 	H 	0.7357	0.71	-0	0.07
Mof_C 	C 	0.5791	0.9578	0.5	-0.059
Mof_H 	H 	0.6131	0.9837	0.5	0.053
Mof_C 	C 	0.4802	0.8796	0.5	-0.092
Mof_C 	C 	0.4224	0.8407	0.5	0.387
Mof_C 	C 	0.2425	0.1085	0.5	-0.039
Mof_H 	H 	0.2461	0.1491	0.5	0.047
Mof_C 	C 	0.2507	0.9849	0.5	-0.155
Mof_C 	C 	0.2601	0.9232	0.5	0.403
Mof_O 	O 	0.2721	0.7746	0.5	-0.907
Mof_H 	H 	0.2357	0.79	0.5	0.075
Mof_C 	C 	0.4209	0.0422	0.5	-0.059
Mof_H 	H 	0.3869	0.0163	0.5	0.053
Mof_C 	C 	0.5198	0.1204	0.5	-0.092
Mof_C 	C 	0.5776	0.1593	0.5	0.387
Mof_C 	C 	0.7575	0.8915	0.5	-0.039
Mof_H 	H 	0.7539	0.8509	0.5	0.047
Mof_C 	C 	0.7493	0.0151	0.5	-0.155
Mof_C 	C 	0.7399	0.0768	0.5	0.403
Mof_O 	O 	0.7279	0.2254	0.5	-0.907
Mof_H 	H 	0.7643	0.21	0.5	0.075
Mof_C 	C 	0.5862	0.7592	0.5	-0.055
Mof_H 	H 	0.5442	0.7711	0.5	0.053
Mof_C 	C 	0.713	0.7303	0.5	-0.089
Mof_C 	C 	0.7814	0.7116	0.5	0.376
Mof_O 	O 	0.92204	0.63437	0.5	-0.963
Mof_Zn	Zn	0.89925	0.54996	0.5	1.174
Mof_Zn	Zn	0.00723	0.66713	0.5	1.181
Mof_C 	C 	0.4138	0.2408	0.5	-0.055
Mof_H 	H 	0.4558	0.2289	0.5	0.053
Mof_C 	C 	0.287	0.2697	0.5	-0.089
Mof_C 	C 	0.2186	0.2884	0.5	0.376
Mof_O 	O 	0.07796	0.36563	0.5	-0.963
Mof_Zn	Zn	0.10075	0.45004	0.5	1.174
Mof_Zn	Zn	0.99277	0.33287	0.5	1.181
Mof_C 	C 	0.9138	0.2592	-0	-0.172
Mof_H 	H 	0.9558	0.2711	-0	0.073
Mof_C 	C 	0.787	0.2303	-0	-0.143
Mof_C 	C 	0.7186	0.2116	-0	0.298
Mof_O 	O 	0.57796	0.13437	-0	-1
Mof_Zn	Zn	0.60075	0.04996	-0	1.156
Mof_Zn	Zn	0.49277	0.16713	-0	1.163
Mof_C 	C 	0.0862	0.7408	-0	-0.172
Mof_H 	H 	0.0442	0.7289	-0	0.073
Mof_C 	C 	0.213	0.7697	-0	-0.143
Mof_C 	C 	0.2814	0.7884	-0	0.298
Mof_O 	O 	0.42204	0.86563	-0	-1
Mof_Zn	Zn	0.39925	0.95004	-0	1.156
Mof_Zn	Zn	0.50723	0.83287	-0	1.163
Mof_O 	O 	0.1752	0.6107	0.5	-0.298
Mof_Zn	Zn	0.2356	0.69048	0.5	1.202
Mof_H 	H 	0.7623	0.2064	0.5	0.084
Mof_O 	O 	0.8248	0.3893	0.5	-0.298
Mof_Zn	Zn	0.7644	0.30952	0.5	1.202
Mof_H 	H 	0.2377	0.7936	0.5	0.084
Mof_O 	O 	0.3248	0.1107	-0	-0.347
Mof_Zn	Zn	0.2644	0.19048	-0	1.187
Mof_H 	H 	0.7377	0.7064	-0	0.08
Mof_O 	O 	0.6752	0.8893	-0	-0.347
Mof_Zn	Zn	0.7356	0.80952	-0	1.187
Mof_H 	H 	0.2623	0.2936	-0	0.08
_end
