# CIF file generated by openbabel 2.4.1, see http://openbabel.sf.net
data_I
_chemical_name_common 'image0'
_cell_length_a 37.083
_cell_length_b 37.083
_cell_length_c 30.0291
_cell_angle_alpha 90
_cell_angle_beta 90
_cell_angle_gamma 120
_space_group_name_H-M_alt 'P 1'
_space_group_name_Hall 'P 1'
loop_
    _symmetry_equiv_pos_as_xyz
    x,y,z
loop_
    _atom_site_label
    _atom_site_type_symbol
    _atom_site_fract_x
    _atom_site_fract_y
    _atom_site_fract_z
    _atom_site_occupancy
    Zn1     Zn   0.22440   0.36590   0.73880   1.000
    Zn2     Zn   0.15700   0.29630   0.80180   1.000
    Zn3     Zn   0.62230   0.34160   0.71980   1.000
    O1      O    0.26000   0.35400   0.77500   1.000
    O2      O    0.36800   0.23900   0.17700   1.000
    O3      O    0.59100   0.34200   0.77200   1.000
    O4      O    0.21200   0.30700   0.82100   1.000
    C1      C    0.28100   0.32200   0.82900   1.000
    C2      C    0.32400   0.34900   0.82200   1.000
    C3      C    0.35230   0.34200   0.84500   1.000
    H1      H    0.38070   0.35980   0.83990   1.000
    C4      C    0.33900   0.30900   0.87400   1.000
    C5      C    0.29600   0.28300   0.88100   1.000
    H2      H    0.28730   0.26100   0.90150   1.000
    C6      C    0.26760   0.29000   0.85900   1.000
    C7      C    0.58200   0.32600   0.81200   1.000
    O5      O    0.31700   0.17500   0.14900   1.000
    C8      C    0.36900   0.30100   0.89900   1.000
    C9      C    0.40500   0.30800   0.87820   1.000
    H3      H    0.41120   0.31730   0.84910   1.000
    C10     C    0.43300   0.30000   0.90100   1.000
    C11     C    0.42500   0.28500   0.94500   1.000
    H4      H    0.44340   0.28020   0.96050   1.000
    C12     C    0.38800   0.27800   0.96530   1.000
    C13     C    0.36000   0.28600   0.94200   1.000
    H5      H    0.33570   0.28140   0.95580   1.000
    C14     C    0.35900   0.23000   0.09800   1.000
    C15     C    0.40000   0.25900   0.08700   1.000
    C16     C    0.40900   0.27500   0.04400   1.000
    H6      H    0.43670   0.29490   0.03660   1.000
    C17     C    0.37800   0.26200   0.01200   1.000
    C18     C    0.33800   0.23200   0.02300   1.000
    H7      H    0.31670   0.22340   0.00160   1.000
    C19     C    0.32800   0.21700   0.06600   1.000
    C20     C    0.22200   0.44300   0.75000   1.000
    C21     C    0.24800   0.32700   0.80300   1.000
    C22     C    0.34900   0.21200   0.14500   1.000
    C23     C    0.47100   0.30600   0.87800   1.000
    C24     C    0.49300   0.34000   0.85000   1.000
    H8      H    0.48310   0.35840   0.84420   1.000
    C25     C    0.52900   0.34700   0.82900   1.000
    C26     C    0.54400   0.31900   0.83700   1.000
    C27     C    0.52200   0.28600   0.86600   1.000
    C28     C    0.48600   0.27900   0.88600   1.000
    H9      H    0.47150   0.25660   0.90510   1.000
    O6      O    0.61500   0.32700   0.83100   1.000
    C29     C    0.11300   0.22700   0.75000   1.000
    C30     C    0.52900   0.24700   0.88300   1.000
    H10     H    0.54790   0.25600   0.90760   1.000
    H11     H    0.54110   0.23890   0.85880   1.000
    H12     H    0.50300   0.22370   0.89120   1.000
    O7      O    0.12800   0.23900   0.78800   1.000
    O8      O    0.24200   0.42500   0.75000   1.000
    C31     C    0.10300   0.15500   0.77600   1.000
    C32     C    0.30400   0.55500   0.72900   1.000
    H13     H    0.32950   0.56890   0.71410   1.000
    C33     C    0.08100   0.11100   0.77600   1.000
    H14     H    0.09050   0.09640   0.79240   1.000
    C34     C    0.14100   0.17000   0.80700   1.000
    H15     H    0.14630   0.14890   0.81290   1.000
    H16     H    0.13500   0.18060   0.83410   1.000
    H17     H    0.16430   0.19350   0.79240   1.000
    C35     C    0.28300   0.51200   0.72900   1.000
    C36     C    0.30800   0.50000   0.70300   1.000
    H18     H    0.30880   0.47540   0.71870   1.000
    H19     H    0.33630   0.52050   0.69980   1.000
    H20     H    0.29630   0.48830   0.67410   1.000
    C37     C    0.22500   0.25800   0.87500   1.000
    H21     H    0.22220   0.26380   0.90560   1.000
    H22     H    0.22190   0.23060   0.87320   1.000
    H23     H    0.20420   0.25900   0.85740   1.000
    C38     C    0.43800   0.27600   0.11700   1.000
    H24     H    0.44490   0.30360   0.12730   1.000
    H25     H    0.46080   0.27780   0.10100   1.000
    H26     H    0.43170   0.25820   0.14240   1.000
    Zn4     Zn   0.18810   0.30120   0.72250   1.000
    Zn5     Zn   0.20710   0.37130   0.79440   1.000
    O9      O    0.36500   0.18800   0.15100   1.000
    O10     O    0.23100   0.30500   0.76500   1.000
    O11     O    0.32200   0.21000   0.16200   1.000
    O12     O    0.24800   0.35800   0.81300   1.000
    C39     C    0.28800   0.33200   0.87400   1.000
    C40     C    0.38600   0.23100   0.02500   1.000
    H27     H    0.39790   0.22040   0.00540   1.000
    C41     C    0.31700   0.32500   0.89700   1.000
    H28     H    0.32120   0.33070   0.92720   1.000
    C42     C    0.36100   0.27700   0.04200   1.000
    H29     H    0.35530   0.29760   0.03280   1.000
    C43     C    0.35200   0.26200   0.08500   1.000
    C44     C    0.30200   0.30600   0.80500   1.000
    C45     C    0.37700   0.21500   0.06800   1.000
    C46     C    0.33100   0.29900   0.82900   1.000
    H30     H    0.34540   0.28750   0.81470   1.000
    C47     C    0.50500   0.31500   0.90100   1.000
    H31     H    0.50630   0.31910   0.93140   1.000
    C48     C    0.50900   0.31100   0.81300   1.000
    C49     C    0.47600   0.30300   0.83400   1.000
    H32     H    0.45230   0.29530   0.81600   1.000
    C50     C    0.53600   0.31700   0.88000   1.000
    O13     O    0.60600   0.36200   0.80600   1.000
    O14     O    0.57800   0.28800   0.80900   1.000
    O15     O    0.15600   0.25000   0.72500   1.000
    O16     O    0.23600   0.43000   0.77700   1.000
    C51     C    0.28300   0.51100   0.77100   1.000
    C52     C    0.30200   0.49600   0.80500   1.000
    H33     H    0.28180   0.47820   0.82630   1.000
    H34     H    0.32450   0.51940   0.82040   1.000
    H35     H    0.31360   0.48070   0.79030   1.000
    C53     C    0.08000   0.11100   0.72300   1.000
    H36     H    0.08970   0.09680   0.70580   1.000
    C54     C    0.30400   0.55500   0.77100   1.000
    H37     H    0.32930   0.56990   0.78670   1.000
    C55     C    0.10200   0.15500   0.72300   1.000
    C56     C    0.33200   0.28000   0.11000   1.000
    H38     H    0.35150   0.31170   0.11300   1.000
    H39     H    0.32550   0.27070   0.14050   1.000
    H40     H    0.30740   0.27770   0.09630   1.000
    C57     C    0.30000   0.29500   0.75600   1.000
    H41     H    0.28870   0.26660   0.75220   1.000
    H42     H    0.31970   0.31320   0.73980   1.000
    H43     H    0.27210   0.29780   0.74590   1.000
    C58     C    0.50000   0.30000   0.76000   1.000
    H44     H    0.47530   0.27590   0.75500   1.000
    H45     H    0.52070   0.31040   0.74240   1.000
    H46     H    0.48650   0.32260   0.75160   1.000
    C59     C    0.39000   0.18200   0.07000   1.000
    H47     H    0.36540   0.15540   0.07480   1.000
    H48     H    0.40860   0.18820   0.09480   1.000
    H49     H    0.40310   0.18210   0.04300   1.000
    C60     C    0.26600   0.35100   0.89800   1.000
    H50     H    0.24950   0.33230   0.92190   1.000
    H51     H    0.24740   0.35380   0.87770   1.000
    H52     H    0.28540   0.37720   0.91010   1.000
    C61     C    0.13800   0.16000   0.68900   1.000
    H53     H    0.14070   0.18630   0.66910   1.000
    H54     H    0.13130   0.14020   0.67260   1.000
    H55     H    0.16360   0.17420   0.70500   1.000
    C62     C    0.55000   0.39000   0.79900   1.000
    H56     H    0.54690   0.38320   0.76830   1.000
    H57     H    0.57900   0.40680   0.80650   1.000
    H58     H    0.53600   0.40520   0.80620   1.000
    C63     C    0.28200   0.18400   0.07200   1.000
    H59     H    0.27890   0.16490   0.09600   1.000
    H60     H    0.27070   0.16820   0.04540   1.000
    H61     H    0.26620   0.19720   0.08010   1.000
    C64     C    0.34100   0.38500   0.78900   1.000
    H62     H    0.31970   0.39070   0.78030   1.000
    H63     H    0.35150   0.37780   0.76310   1.000
    H64     H    0.36360   0.40910   0.80280   1.000
    Zn6     Zn   0.63410   0.85850   0.73880   1.000
    Zn7     Zn   0.70370   0.86070   0.80180   1.000
    Zn8     Zn   0.65840   0.28070   0.71980   1.000
    O17     O    0.64600   0.90600   0.77500   1.000
    O18     O    0.76100   0.12900   0.17700   1.000
    O19     O    0.65800   0.24900   0.77200   1.000
    O20     O    0.69300   0.90500   0.82100   1.000
    C65     C    0.67800   0.95900   0.82900   1.000
    C66     C    0.65100   0.97500   0.82200   1.000
    C67     C    0.65800   0.01030   0.84500   1.000
    H65     H    0.64020   0.02090   0.83990   1.000
    C68     C    0.69100   0.03000   0.87400   1.000
    C69     C    0.71700   0.01300   0.88100   1.000
    H66     H    0.73900   0.02630   0.90150   1.000
    C70     C    0.71000   0.97760   0.85900   1.000
    C71     C    0.67400   0.25600   0.81200   1.000
    O21     O    0.82500   0.14200   0.14900   1.000
    C72     C    0.69900   0.06800   0.89900   1.000
    C73     C    0.69200   0.09700   0.87820   1.000
    H67     H    0.68270   0.09390   0.84910   1.000
    C74     C    0.70000   0.13300   0.90100   1.000
    C75     C    0.71500   0.14000   0.94500   1.000
    H68     H    0.71980   0.16320   0.96050   1.000
    C76     C    0.72200   0.11000   0.96530   1.000
    C77     C    0.71400   0.07400   0.94200   1.000
    H69     H    0.71860   0.05430   0.95580   1.000
    C78     C    0.77000   0.12900   0.09800   1.000
    C79     C    0.74100   0.14100   0.08700   1.000
    C80     C    0.72500   0.13400   0.04400   1.000
    H70     H    0.70510   0.14180   0.03660   1.000
    C81     C    0.73800   0.11600   0.01200   1.000
    C82     C    0.76800   0.10600   0.02300   1.000
    H71     H    0.77660   0.09330   0.00160   1.000
    C83     C    0.78300   0.11100   0.06600   1.000
    C84     C    0.55700   0.77900   0.75000   1.000
    C85     C    0.67300   0.92100   0.80300   1.000
    C86     C    0.78800   0.13700   0.14500   1.000
    C87     C    0.69400   0.16500   0.87800   1.000
    C88     C    0.66000   0.15300   0.85000   1.000
    H72     H    0.64160   0.12470   0.84420   1.000
    C89     C    0.65300   0.18200   0.82900   1.000
    C90     C    0.68100   0.22500   0.83700   1.000
    C91     C    0.71400   0.23600   0.86600   1.000
    C92     C    0.72100   0.20700   0.88600   1.000
    H73     H    0.74340   0.21490   0.90510   1.000
    O22     O    0.67300   0.28800   0.83100   1.000
    C93     C    0.77300   0.88600   0.75000   1.000
    C94     C    0.75300   0.28200   0.88300   1.000
    H74     H    0.74400   0.29190   0.90760   1.000
    H75     H    0.76110   0.30220   0.85880   1.000
    H76     H    0.77630   0.27930   0.89120   1.000
    O23     O    0.76100   0.88900   0.78800   1.000
    O24     O    0.57500   0.81700   0.75000   1.000
    C95     C    0.84500   0.94800   0.77600   1.000
    C96     C    0.44500   0.74900   0.72900   1.000
    H77     H    0.43110   0.76060   0.71410   1.000
    C97     C    0.88900   0.97000   0.77600   1.000
    H78     H    0.90360   0.99410   0.79240   1.000
    C98     C    0.83000   0.97100   0.80700   1.000
    H79     H    0.85110   0.99740   0.81290   1.000
    H80     H    0.81940   0.95440   0.83410   1.000
    H81     H    0.80650   0.97080   0.79240   1.000
    C99     C    0.48800   0.77100   0.72900   1.000
    C100    C    0.50000   0.80800   0.70300   1.000
    H82     H    0.52460   0.83340   0.71870   1.000
    H83     H    0.47950   0.81580   0.69980   1.000
    H84     H    0.51170   0.80800   0.67410   1.000
    C101    C    0.74200   0.96700   0.87500   1.000
    H85     H    0.73620   0.95840   0.90560   1.000
    H86     H    0.76940   0.99130   0.87320   1.000
    H87     H    0.74100   0.94520   0.85740   1.000
    C102    C    0.72400   0.16200   0.11700   1.000
    H88     H    0.69640   0.14130   0.12730   1.000
    H89     H    0.72220   0.18300   0.10100   1.000
    H90     H    0.74180   0.17350   0.14240   1.000
    Zn9     Zn   0.69880   0.88690   0.72250   1.000
    Zn10    Zn   0.62870   0.83580   0.79440   1.000
    O25     O    0.81200   0.17700   0.15100   1.000
    O26     O    0.69500   0.92600   0.76500   1.000
    O27     O    0.79000   0.11200   0.16200   1.000
    O28     O    0.64200   0.89000   0.81300   1.000
    C103    C    0.66800   0.95600   0.87400   1.000
    C104    C    0.76900   0.15500   0.02500   1.000
    H91     H    0.77960   0.17750   0.00540   1.000
    C105    C    0.67500   0.99200   0.89700   1.000
    H92     H    0.66930   0.99050   0.92720   1.000
    C106    C    0.72300   0.08400   0.04200   1.000
    H93     H    0.70240   0.05770   0.03280   1.000
    C107    C    0.73800   0.09000   0.08500   1.000
    C108    C    0.69400   0.99600   0.80500   1.000
    C109    C    0.78500   0.16200   0.06800   1.000
    C110    C    0.70100   0.03200   0.82900   1.000
    H94     H    0.71250   0.05790   0.81470   1.000
    C111    C    0.68500   0.19000   0.90100   1.000
    H95     H    0.68090   0.18720   0.93140   1.000
    C112    C    0.68900   0.19800   0.81300   1.000
    C113    C    0.69700   0.17300   0.83400   1.000
    H96     H    0.70470   0.15700   0.81600   1.000
    C114    C    0.68300   0.21900   0.88000   1.000
    O29     O    0.63800   0.24400   0.80600   1.000
    O30     O    0.71200   0.29000   0.80900   1.000
    O31     O    0.75000   0.90600   0.72500   1.000
    O32     O    0.57000   0.80600   0.77700   1.000
    C115    C    0.48900   0.77200   0.77100   1.000
    C116    C    0.50400   0.80600   0.80500   1.000
    H97     H    0.52180   0.80360   0.82630   1.000
    H98     H    0.48060   0.80510   0.82040   1.000
    H99     H    0.51930   0.83290   0.79030   1.000
    C117    C    0.88900   0.96900   0.72300   1.000
    H100    H    0.90320   0.99290   0.70580   1.000
    C118    C    0.44500   0.74900   0.77100   1.000
    H101    H    0.43010   0.75940   0.78670   1.000
    C119    C    0.84500   0.94700   0.72300   1.000
    C120    C    0.72000   0.05200   0.11000   1.000
    H102    H    0.68830   0.03980   0.11300   1.000
    H103    H    0.72930   0.05480   0.14050   1.000
    H104    H    0.72230   0.02970   0.09630   1.000
    C121    C    0.70500   0.00500   0.75600   1.000
    H105    H    0.73340   0.02210   0.75220   1.000
    H106    H    0.68680   0.00650   0.73980   1.000
    H107    H    0.70220   0.97430   0.74590   1.000
    C122    C    0.70000   0.20000   0.76000   1.000
    H108    H    0.72410   0.19940   0.75500   1.000
    H109    H    0.68960   0.21030   0.74240   1.000
    H110    H    0.67740   0.16390   0.75160   1.000
    C123    C    0.81800   0.20800   0.07000   1.000
    H111    H    0.84460   0.21000   0.07480   1.000
    H112    H    0.81180   0.22040   0.09480   1.000
    H113    H    0.81790   0.22100   0.04300   1.000
    C124    C    0.64900   0.91500   0.89800   1.000
    H114    H    0.66770   0.91720   0.92190   1.000
    H115    H    0.64620   0.89360   0.87770   1.000
    H116    H    0.62280   0.90820   0.91010   1.000
    C125    C    0.84000   0.97800   0.68900   1.000
    H117    H    0.81370   0.95440   0.66910   1.000
    H118    H    0.85980   0.99110   0.67260   1.000
    H119    H    0.82580   0.98940   0.70500   1.000
    C126    C    0.61000   0.16000   0.79900   1.000
    H120    H    0.61680   0.16370   0.76830   1.000
    H121    H    0.59320   0.17220   0.80650   1.000
    H122    H    0.59480   0.13080   0.80620   1.000
    C127    C    0.81600   0.09800   0.07200   1.000
    H123    H    0.83510   0.11400   0.09600   1.000
    H124    H    0.83180   0.10250   0.04540   1.000
    H125    H    0.80280   0.06900   0.08010   1.000
    C128    C    0.61500   0.95600   0.78900   1.000
    H126    H    0.60930   0.92900   0.78030   1.000
    H127    H    0.62220   0.97370   0.76310   1.000
    H128    H    0.59090   0.95450   0.80280   1.000
    Zn11    Zn   0.14150   0.77560   0.73880   1.000
    Zn12    Zn   0.13930   0.84300   0.80180   1.000
    Zn13    Zn   0.71930   0.37770   0.71980   1.000
    O33     O    0.09400   0.74000   0.77500   1.000
    O34     O    0.87100   0.63200   0.17700   1.000
    O35     O    0.75100   0.40900   0.77200   1.000
    O36     O    0.09500   0.78800   0.82100   1.000
    C129    C    0.04100   0.71900   0.82900   1.000
    C130    C    0.02500   0.67600   0.82200   1.000
    C131    C    0.98970   0.64770   0.84500   1.000
    H129    H    0.97910   0.61930   0.83990   1.000
    C132    C    0.97000   0.66100   0.87400   1.000
    C133    C    0.98700   0.70400   0.88100   1.000
    H130    H    0.97370   0.71270   0.90150   1.000
    C134    C    0.02240   0.73240   0.85900   1.000
    C135    C    0.74400   0.41800   0.81200   1.000
    O37     O    0.85800   0.68300   0.14900   1.000
    C136    C    0.93200   0.63100   0.89900   1.000
    C137    C    0.90300   0.59500   0.87820   1.000
    H131    H    0.90610   0.58880   0.84910   1.000
    C138    C    0.86700   0.56700   0.90100   1.000
    C139    C    0.86000   0.57500   0.94500   1.000
    H132    H    0.83680   0.55660   0.96050   1.000
    C140    C    0.89000   0.61200   0.96530   1.000
    C141    C    0.92600   0.64000   0.94200   1.000
    H133    H    0.94570   0.66430   0.95580   1.000
    C142    C    0.87100   0.64100   0.09800   1.000
    C143    C    0.85900   0.60000   0.08700   1.000
    C144    C    0.86600   0.59100   0.04400   1.000
    H134    H    0.85820   0.56330   0.03660   1.000
    C145    C    0.88400   0.62200   0.01200   1.000
    C146    C    0.89400   0.66200   0.02300   1.000
    H135    H    0.90670   0.68330   0.00160   1.000
    C147    C    0.88900   0.67200   0.06600   1.000
    C148    C    0.22100   0.77800   0.75000   1.000
    C149    C    0.07900   0.75200   0.80300   1.000
    C150    C    0.86300   0.65100   0.14500   1.000
    C151    C    0.83500   0.52900   0.87800   1.000
    C152    C    0.84700   0.50700   0.85000   1.000
    H136    H    0.87530   0.51690   0.84420   1.000
    C153    C    0.81800   0.47100   0.82900   1.000
    C154    C    0.77500   0.45600   0.83700   1.000
    C155    C    0.76400   0.47800   0.86600   1.000
    C156    C    0.79300   0.51400   0.88600   1.000
    H137    H    0.78510   0.52850   0.90510   1.000
    O38     O    0.71200   0.38500   0.83100   1.000
    C157    C    0.11400   0.88700   0.75000   1.000
    C158    C    0.71800   0.47100   0.88300   1.000
    H138    H    0.70810   0.45210   0.90760   1.000
    H139    H    0.69780   0.45890   0.85880   1.000
    H140    H    0.72070   0.49700   0.89120   1.000
    O39     O    0.11100   0.87200   0.78800   1.000
    O40     O    0.18300   0.75800   0.75000   1.000
    C159    C    0.05200   0.89700   0.77600   1.000
    C160    C    0.25100   0.69600   0.72900   1.000
    H141    H    0.23940   0.67050   0.71410   1.000
    C161    C    0.03000   0.91900   0.77600   1.000
    H142    H    0.00590   0.90950   0.79240   1.000
    C162    C    0.02900   0.85900   0.80700   1.000
    H143    H    0.00260   0.85370   0.81290   1.000
    H144    H    0.04560   0.86500   0.83410   1.000
    H145    H    0.02920   0.83570   0.79240   1.000
    C163    C    0.22900   0.71700   0.72900   1.000
    C164    C    0.19200   0.69200   0.70300   1.000
    H146    H    0.16660   0.69120   0.71870   1.000
    H147    H    0.18420   0.66370   0.69980   1.000
    H148    H    0.19200   0.70370   0.67410   1.000
    C165    C    0.03300   0.77500   0.87500   1.000
    H149    H    0.04160   0.77780   0.90560   1.000
    H150    H    0.00870   0.77810   0.87320   1.000
    H151    H    0.05480   0.79580   0.85740   1.000
    C166    C    0.83800   0.56200   0.11700   1.000
    H152    H    0.85870   0.55510   0.12730   1.000
    H153    H    0.81700   0.53920   0.10100   1.000
    H154    H    0.82650   0.56830   0.14240   1.000
    Zn14    Zn   0.11310   0.81190   0.72250   1.000
    Zn15    Zn   0.16420   0.79290   0.79440   1.000
    O41     O    0.82300   0.63500   0.15100   1.000
    O42     O    0.07400   0.76900   0.76500   1.000
    O43     O    0.88800   0.67800   0.16200   1.000
    O44     O    0.11000   0.75200   0.81300   1.000
    C167    C    0.04400   0.71200   0.87400   1.000
    C168    C    0.84500   0.61400   0.02500   1.000
    H155    H    0.82250   0.60210   0.00540   1.000
    C169    C    0.00800   0.68300   0.89700   1.000
    H156    H    0.00950   0.67880   0.92720   1.000
    C170    C    0.91600   0.63900   0.04200   1.000
    H157    H    0.94230   0.64470   0.03280   1.000
    C171    C    0.91000   0.64800   0.08500   1.000
    C172    C    0.00400   0.69800   0.80500   1.000
    C173    C    0.83800   0.62300   0.06800   1.000
    C174    C    0.96800   0.66900   0.82900   1.000
    H158    H    0.94210   0.65460   0.81470   1.000
    C175    C    0.81000   0.49500   0.90100   1.000
    H159    H    0.81280   0.49370   0.93140   1.000
    C176    C    0.80200   0.49100   0.81300   1.000
    C177    C    0.82700   0.52400   0.83400   1.000
    H160    H    0.84300   0.54770   0.81600   1.000
    C178    C    0.78100   0.46400   0.88000   1.000
    O45     O    0.75600   0.39400   0.80600   1.000
    O46     O    0.71000   0.42200   0.80900   1.000
    O47     O    0.09400   0.84400   0.72500   1.000
    O48     O    0.19400   0.76400   0.77700   1.000
    C179    C    0.22800   0.71700   0.77100   1.000
    C180    C    0.19400   0.69800   0.80500   1.000
    H161    H    0.19640   0.71820   0.82630   1.000
    H162    H    0.19490   0.67550   0.82040   1.000
    H163    H    0.16710   0.68640   0.79030   1.000
    C181    C    0.03100   0.92000   0.72300   1.000
    H164    H    0.00710   0.91030   0.70580   1.000
    C182    C    0.25100   0.69600   0.77100   1.000
    H165    H    0.24060   0.67070   0.78670   1.000
    C183    C    0.05300   0.89800   0.72300   1.000
    C184    C    0.94800   0.66800   0.11000   1.000
    H166    H    0.96020   0.64850   0.11300   1.000
    H167    H    0.94520   0.67450   0.14050   1.000
    H168    H    0.97030   0.69260   0.09630   1.000
    C185    C    0.99500   0.70000   0.75600   1.000
    H169    H    0.97790   0.71130   0.75220   1.000
    H170    H    0.99350   0.68030   0.73980   1.000
    H171    H    0.02570   0.72790   0.74590   1.000
    C186    C    0.80000   0.50000   0.76000   1.000
    H172    H    0.80060   0.52470   0.75500   1.000
    H173    H    0.78970   0.47930   0.74240   1.000
    H174    H    0.83610   0.51350   0.75160   1.000
    C187    C    0.79200   0.61000   0.07000   1.000
    H175    H    0.79000   0.63460   0.07480   1.000
    H176    H    0.77960   0.59140   0.09480   1.000
    H177    H    0.77900   0.59690   0.04300   1.000
    C188    C    0.08500   0.73400   0.89800   1.000
    H178    H    0.08280   0.75050   0.92190   1.000
    H179    H    0.10640   0.75260   0.87770   1.000
    H180    H    0.09180   0.71460   0.91010   1.000
    C189    C    0.02200   0.86200   0.68900   1.000
    H181    H    0.04560   0.85930   0.66910   1.000
    H182    H    0.00890   0.86870   0.67260   1.000
    H183    H    0.01060   0.83640   0.70500   1.000
    C190    C    0.84000   0.45000   0.79900   1.000
    H184    H    0.83630   0.45310   0.76830   1.000
    H185    H    0.82780   0.42100   0.80650   1.000
    H186    H    0.86920   0.46400   0.80620   1.000
    C191    C    0.90200   0.71800   0.07200   1.000
    H187    H    0.88600   0.72110   0.09600   1.000
    H188    H    0.89750   0.72930   0.04540   1.000
    H189    H    0.93100   0.73380   0.08010   1.000
    C192    C    0.04400   0.65900   0.78900   1.000
    H190    H    0.07100   0.68030   0.78030   1.000
    H191    H    0.02630   0.64850   0.76310   1.000
    H192    H    0.04550   0.63640   0.80280   1.000
    Zn16    Zn   0.63410   0.77560   0.76120   1.000
    Zn17    Zn   0.70370   0.84300   0.69820   1.000
    Zn18    Zn   0.65840   0.37770   0.78020   1.000
    O49     O    0.64600   0.74000   0.72500   1.000
    O50     O    0.76100   0.63200   0.32300   1.000
    O51     O    0.65800   0.40900   0.72800   1.000
    O52     O    0.69300   0.78800   0.67900   1.000
    C193    C    0.67800   0.71900   0.67100   1.000
    C194    C    0.65100   0.67600   0.67800   1.000
    C195    C    0.65800   0.64770   0.65500   1.000
    H193    H    0.64020   0.61930   0.66010   1.000
    C196    C    0.69100   0.66100   0.62600   1.000
    C197    C    0.71700   0.70400   0.61900   1.000
    H194    H    0.73900   0.71270   0.59850   1.000
    C198    C    0.71000   0.73240   0.64100   1.000
    C199    C    0.67400   0.41800   0.68800   1.000
    O53     O    0.82500   0.68300   0.35100   1.000
    C200    C    0.69900   0.63100   0.60100   1.000
    C201    C    0.69200   0.59500   0.62180   1.000
    H195    H    0.68270   0.58880   0.65090   1.000
    C202    C    0.70000   0.56700   0.59900   1.000
    C203    C    0.71500   0.57500   0.55500   1.000
    H196    H    0.71980   0.55660   0.53950   1.000
    C204    C    0.72200   0.61200   0.53470   1.000
    C205    C    0.71400   0.64000   0.55800   1.000
    H197    H    0.71860   0.66430   0.54420   1.000
    C206    C    0.77000   0.64100   0.40200   1.000
    C207    C    0.74100   0.60000   0.41300   1.000
    C208    C    0.72500   0.59100   0.45600   1.000
    H198    H    0.70510   0.56330   0.46340   1.000
    C209    C    0.73800   0.62200   0.48800   1.000
    C210    C    0.76800   0.66200   0.47700   1.000
    H199    H    0.77660   0.68330   0.49840   1.000
    C211    C    0.78300   0.67200   0.43400   1.000
    C212    C    0.55700   0.77800   0.75000   1.000
    C213    C    0.67300   0.75200   0.69700   1.000
    C214    C    0.78800   0.65100   0.35500   1.000
    C215    C    0.69400   0.52900   0.62200   1.000
    C216    C    0.66000   0.50700   0.65000   1.000
    H200    H    0.64160   0.51690   0.65580   1.000
    C217    C    0.65300   0.47100   0.67100   1.000
    C218    C    0.68100   0.45600   0.66300   1.000
    C219    C    0.71400   0.47800   0.63400   1.000
    C220    C    0.72100   0.51400   0.61400   1.000
    H201    H    0.74340   0.52850   0.59490   1.000
    O54     O    0.67300   0.38500   0.66900   1.000
    C221    C    0.77300   0.88700   0.75000   1.000
    C222    C    0.75300   0.47100   0.61700   1.000
    H202    H    0.74400   0.45210   0.59240   1.000
    H203    H    0.76110   0.45890   0.64120   1.000
    H204    H    0.77630   0.49700   0.60880   1.000
    O55     O    0.76100   0.87200   0.71200   1.000
    O56     O    0.57500   0.75800   0.75000   1.000
    C223    C    0.84500   0.89700   0.72400   1.000
    C224    C    0.44500   0.69600   0.77100   1.000
    H205    H    0.43110   0.67050   0.78590   1.000
    C225    C    0.88900   0.91900   0.72400   1.000
    H206    H    0.90360   0.90950   0.70760   1.000
    C226    C    0.83000   0.85900   0.69300   1.000
    H207    H    0.85110   0.85370   0.68710   1.000
    H208    H    0.81940   0.86500   0.66590   1.000
    H209    H    0.80650   0.83570   0.70760   1.000
    C227    C    0.48800   0.71700   0.77100   1.000
    C228    C    0.50000   0.69200   0.79700   1.000
    H210    H    0.52460   0.69120   0.78130   1.000
    H211    H    0.47950   0.66370   0.80020   1.000
    H212    H    0.51170   0.70370   0.82590   1.000
    C229    C    0.74200   0.77500   0.62500   1.000
    H213    H    0.73620   0.77780   0.59440   1.000
    H214    H    0.76940   0.77810   0.62680   1.000
    H215    H    0.74100   0.79580   0.64260   1.000
    C230    C    0.72400   0.56200   0.38300   1.000
    H216    H    0.69640   0.55510   0.37270   1.000
    H217    H    0.72220   0.53920   0.39900   1.000
    H218    H    0.74180   0.56830   0.35760   1.000
    Zn19    Zn   0.69880   0.81190   0.77750   1.000
    Zn20    Zn   0.62870   0.79290   0.70560   1.000
    O57     O    0.81200   0.63500   0.34900   1.000
    O58     O    0.69500   0.76900   0.73500   1.000
    O59     O    0.79000   0.67800   0.33800   1.000
    O60     O    0.64200   0.75200   0.68700   1.000
    C231    C    0.66800   0.71200   0.62600   1.000
    C232    C    0.76900   0.61400   0.47500   1.000
    H219    H    0.77960   0.60210   0.49460   1.000
    C233    C    0.67500   0.68300   0.60300   1.000
    H220    H    0.66930   0.67880   0.57280   1.000
    C234    C    0.72300   0.63900   0.45800   1.000
    H221    H    0.70240   0.64470   0.46720   1.000
    C235    C    0.73800   0.64800   0.41500   1.000
    C236    C    0.69400   0.69800   0.69500   1.000
    C237    C    0.78500   0.62300   0.43200   1.000
    C238    C    0.70100   0.66900   0.67100   1.000
    H222    H    0.71250   0.65460   0.68530   1.000
    C239    C    0.68500   0.49500   0.59900   1.000
    H223    H    0.68090   0.49370   0.56860   1.000
    C240    C    0.68900   0.49100   0.68700   1.000
    C241    C    0.69700   0.52400   0.66600   1.000
    H224    H    0.70470   0.54770   0.68400   1.000
    C242    C    0.68300   0.46400   0.62000   1.000
    O61     O    0.63800   0.39400   0.69400   1.000
    O62     O    0.71200   0.42200   0.69100   1.000
    O63     O    0.75000   0.84400   0.77500   1.000
    O64     O    0.57000   0.76400   0.72300   1.000
    C243    C    0.48900   0.71700   0.72900   1.000
    C244    C    0.50400   0.69800   0.69500   1.000
    H225    H    0.52180   0.71820   0.67370   1.000
    H226    H    0.48060   0.67550   0.67960   1.000
    H227    H    0.51930   0.68640   0.70970   1.000
    C245    C    0.88900   0.92000   0.77700   1.000
    H228    H    0.90320   0.91030   0.79420   1.000
    C246    C    0.44500   0.69600   0.72900   1.000
    H229    H    0.43010   0.67070   0.71330   1.000
    C247    C    0.84500   0.89800   0.77700   1.000
    C248    C    0.72000   0.66800   0.39000   1.000
    H230    H    0.68830   0.64850   0.38700   1.000
    H231    H    0.72930   0.67450   0.35950   1.000
    H232    H    0.72230   0.69260   0.40370   1.000
    C249    C    0.70500   0.70000   0.74400   1.000
    H233    H    0.73340   0.71130   0.74780   1.000
    H234    H    0.68680   0.68030   0.76020   1.000
    H235    H    0.70220   0.72790   0.75410   1.000
    C250    C    0.70000   0.50000   0.74000   1.000
    H236    H    0.72410   0.52470   0.74500   1.000
    H237    H    0.68960   0.47930   0.75760   1.000
    H238    H    0.67740   0.51350   0.74840   1.000
    C251    C    0.81800   0.61000   0.43000   1.000
    H239    H    0.84460   0.63460   0.42520   1.000
    H240    H    0.81180   0.59140   0.40520   1.000
    H241    H    0.81790   0.59690   0.45700   1.000
    C252    C    0.64900   0.73400   0.60200   1.000
    H242    H    0.66770   0.75050   0.57810   1.000
    H243    H    0.64620   0.75260   0.62230   1.000
    H244    H    0.62280   0.71460   0.58990   1.000
    C253    C    0.84000   0.86200   0.81100   1.000
    H245    H    0.81370   0.85930   0.83090   1.000
    H246    H    0.85980   0.86870   0.82740   1.000
    H247    H    0.82580   0.83640   0.79500   1.000
    C254    C    0.61000   0.45000   0.70100   1.000
    H248    H    0.61680   0.45310   0.73170   1.000
    H249    H    0.59320   0.42100   0.69350   1.000
    H250    H    0.59480   0.46400   0.69380   1.000
    C255    C    0.81600   0.71800   0.42800   1.000
    H251    H    0.83510   0.72110   0.40400   1.000
    H252    H    0.83180   0.72930   0.45460   1.000
    H253    H    0.80280   0.73380   0.41990   1.000
    C256    C    0.61500   0.65900   0.71100   1.000
    H254    H    0.60930   0.68030   0.71970   1.000
    H255    H    0.62220   0.64850   0.73690   1.000
    H256    H    0.59090   0.63640   0.69720   1.000
    Zn21    Zn   0.14150   0.36590   0.76120   1.000
    Zn22    Zn   0.13930   0.29630   0.69820   1.000
    Zn23    Zn   0.71930   0.34160   0.78020   1.000
    O65     O    0.09400   0.35400   0.72500   1.000
    O66     O    0.87100   0.23900   0.32300   1.000
    O67     O    0.75100   0.34200   0.72800   1.000
    O68     O    0.09500   0.30700   0.67900   1.000
    C257    C    0.04100   0.32200   0.67100   1.000
    C258    C    0.02500   0.34900   0.67800   1.000
    C259    C    0.98970   0.34200   0.65500   1.000
    H257    H    0.97910   0.35980   0.66010   1.000
    C260    C    0.97000   0.30900   0.62600   1.000
    C261    C    0.98700   0.28300   0.61900   1.000
    H258    H    0.97370   0.26100   0.59850   1.000
    C262    C    0.02240   0.29000   0.64100   1.000
    C263    C    0.74400   0.32600   0.68800   1.000
    O69     O    0.85800   0.17500   0.35100   1.000
    C264    C    0.93200   0.30100   0.60100   1.000
    C265    C    0.90300   0.30800   0.62180   1.000
    H259    H    0.90610   0.31730   0.65090   1.000
    C266    C    0.86700   0.30000   0.59900   1.000
    C267    C    0.86000   0.28500   0.55500   1.000
    H260    H    0.83680   0.28020   0.53950   1.000
    C268    C    0.89000   0.27800   0.53470   1.000
    C269    C    0.92600   0.28600   0.55800   1.000
    H261    H    0.94570   0.28140   0.54420   1.000
    C270    C    0.87100   0.23000   0.40200   1.000
    C271    C    0.85900   0.25900   0.41300   1.000
    C272    C    0.86600   0.27500   0.45600   1.000
    H262    H    0.85820   0.29490   0.46340   1.000
    C273    C    0.88400   0.26200   0.48800   1.000
    C274    C    0.89400   0.23200   0.47700   1.000
    H263    H    0.90670   0.22340   0.49840   1.000
    C275    C    0.88900   0.21700   0.43400   1.000
    C276    C    0.22100   0.44300   0.75000   1.000
    C277    C    0.07900   0.32700   0.69700   1.000
    C278    C    0.86300   0.21200   0.35500   1.000
    C279    C    0.83500   0.30600   0.62200   1.000
    C280    C    0.84700   0.34000   0.65000   1.000
    H264    H    0.87530   0.35840   0.65580   1.000
    C281    C    0.81800   0.34700   0.67100   1.000
    C282    C    0.77500   0.31900   0.66300   1.000
    C283    C    0.76400   0.28600   0.63400   1.000
    C284    C    0.79300   0.27900   0.61400   1.000
    H265    H    0.78510   0.25660   0.59490   1.000
    O70     O    0.71200   0.32700   0.66900   1.000
    C285    C    0.11400   0.22700   0.75000   1.000
    C286    C    0.71800   0.24700   0.61700   1.000
    H266    H    0.70810   0.25600   0.59240   1.000
    H267    H    0.69780   0.23890   0.64120   1.000
    H268    H    0.72070   0.22370   0.60880   1.000
    O71     O    0.11100   0.23900   0.71200   1.000
    O72     O    0.18300   0.42500   0.75000   1.000
    C287    C    0.05200   0.15500   0.72400   1.000
    C288    C    0.25100   0.55500   0.77100   1.000
    H269    H    0.23940   0.56890   0.78590   1.000
    C289    C    0.03000   0.11100   0.72400   1.000
    H270    H    0.00590   0.09640   0.70760   1.000
    C290    C    0.02900   0.17000   0.69300   1.000
    H271    H    0.00260   0.14890   0.68710   1.000
    H272    H    0.04560   0.18060   0.66590   1.000
    H273    H    0.02920   0.19350   0.70760   1.000
    C291    C    0.22900   0.51200   0.77100   1.000
    C292    C    0.19200   0.50000   0.79700   1.000
    H274    H    0.16660   0.47540   0.78130   1.000
    H275    H    0.18420   0.52050   0.80020   1.000
    H276    H    0.19200   0.48830   0.82590   1.000
    C293    C    0.03300   0.25800   0.62500   1.000
    H277    H    0.04160   0.26380   0.59440   1.000
    H278    H    0.00870   0.23060   0.62680   1.000
    H279    H    0.05480   0.25900   0.64260   1.000
    C294    C    0.83800   0.27600   0.38300   1.000
    H280    H    0.85870   0.30360   0.37270   1.000
    H281    H    0.81700   0.27780   0.39900   1.000
    H282    H    0.82650   0.25820   0.35760   1.000
    Zn24    Zn   0.11310   0.30120   0.77750   1.000
    Zn25    Zn   0.16420   0.37130   0.70560   1.000
    O73     O    0.82300   0.18800   0.34900   1.000
    O74     O    0.07400   0.30500   0.73500   1.000
    O75     O    0.88800   0.21000   0.33800   1.000
    O76     O    0.11000   0.35800   0.68700   1.000
    C295    C    0.04400   0.33200   0.62600   1.000
    C296    C    0.84500   0.23100   0.47500   1.000
    H283    H    0.82250   0.22040   0.49460   1.000
    C297    C    0.00800   0.32500   0.60300   1.000
    H284    H    0.00950   0.33070   0.57280   1.000
    C298    C    0.91600   0.27700   0.45800   1.000
    H285    H    0.94230   0.29760   0.46720   1.000
    C299    C    0.91000   0.26200   0.41500   1.000
    C300    C    0.00400   0.30600   0.69500   1.000
    C301    C    0.83800   0.21500   0.43200   1.000
    C302    C    0.96800   0.29900   0.67100   1.000
    H286    H    0.94210   0.28750   0.68530   1.000
    C303    C    0.81000   0.31500   0.59900   1.000
    H287    H    0.81280   0.31910   0.56860   1.000
    C304    C    0.80200   0.31100   0.68700   1.000
    C305    C    0.82700   0.30300   0.66600   1.000
    H288    H    0.84300   0.29530   0.68400   1.000
    C306    C    0.78100   0.31700   0.62000   1.000
    O77     O    0.75600   0.36200   0.69400   1.000
    O78     O    0.71000   0.28800   0.69100   1.000
    O79     O    0.09400   0.25000   0.77500   1.000
    O80     O    0.19400   0.43000   0.72300   1.000
    C307    C    0.22800   0.51100   0.72900   1.000
    C308    C    0.19400   0.49600   0.69500   1.000
    H289    H    0.19640   0.47820   0.67370   1.000
    H290    H    0.19490   0.51940   0.67960   1.000
    H291    H    0.16710   0.48070   0.70970   1.000
    C309    C    0.03100   0.11100   0.77700   1.000
    H292    H    0.00710   0.09680   0.79420   1.000
    C310    C    0.25100   0.55500   0.72900   1.000
    H293    H    0.24060   0.56990   0.71330   1.000
    C311    C    0.05300   0.15500   0.77700   1.000
    C312    C    0.94800   0.28000   0.39000   1.000
    H294    H    0.96020   0.31170   0.38700   1.000
    H295    H    0.94520   0.27070   0.35950   1.000
    H296    H    0.97030   0.27770   0.40370   1.000
    C313    C    0.99500   0.29500   0.74400   1.000
    H297    H    0.97790   0.26660   0.74780   1.000
    H298    H    0.99350   0.31320   0.76020   1.000
    H299    H    0.02570   0.29780   0.75410   1.000
    C314    C    0.80000   0.30000   0.74000   1.000
    H300    H    0.80060   0.27590   0.74500   1.000
    H301    H    0.78970   0.31040   0.75760   1.000
    H302    H    0.83610   0.32260   0.74840   1.000
    C315    C    0.79200   0.18200   0.43000   1.000
    H303    H    0.79000   0.15540   0.42520   1.000
    H304    H    0.77960   0.18820   0.40520   1.000
    H305    H    0.77900   0.18210   0.45700   1.000
    C316    C    0.08500   0.35100   0.60200   1.000
    H306    H    0.08280   0.33230   0.57810   1.000
    H307    H    0.10640   0.35380   0.62230   1.000
    H308    H    0.09180   0.37720   0.58990   1.000
    C317    C    0.02200   0.16000   0.81100   1.000
    H309    H    0.04560   0.18630   0.83090   1.000
    H310    H    0.00890   0.14020   0.82740   1.000
    H311    H    0.01060   0.17420   0.79500   1.000
    C318    C    0.84000   0.39000   0.70100   1.000
    H312    H    0.83630   0.38320   0.73170   1.000
    H313    H    0.82780   0.40680   0.69350   1.000
    H314    H    0.86920   0.40520   0.69380   1.000
    C319    C    0.90200   0.18400   0.42800   1.000
    H315    H    0.88600   0.16490   0.40400   1.000
    H316    H    0.89750   0.16820   0.45460   1.000
    H317    H    0.93100   0.19720   0.41990   1.000
    C320    C    0.04400   0.38500   0.71100   1.000
    H318    H    0.07100   0.39070   0.71970   1.000
    H319    H    0.02630   0.37780   0.73690   1.000
    H320    H    0.04550   0.40910   0.69720   1.000
    Zn26    Zn   0.22440   0.85850   0.76120   1.000
    Zn27    Zn   0.15700   0.86070   0.69820   1.000
    Zn28    Zn   0.62230   0.28070   0.78020   1.000
    O81     O    0.26000   0.90600   0.72500   1.000
    O82     O    0.36800   0.12900   0.32300   1.000
    O83     O    0.59100   0.24900   0.72800   1.000
    O84     O    0.21200   0.90500   0.67900   1.000
    C321    C    0.28100   0.95900   0.67100   1.000
    C322    C    0.32400   0.97500   0.67800   1.000
    C323    C    0.35230   0.01030   0.65500   1.000
    H321    H    0.38070   0.02090   0.66010   1.000
    C324    C    0.33900   0.03000   0.62600   1.000
    C325    C    0.29600   0.01300   0.61900   1.000
    H322    H    0.28730   0.02630   0.59850   1.000
    C326    C    0.26760   0.97760   0.64100   1.000
    C327    C    0.58200   0.25600   0.68800   1.000
    O85     O    0.31700   0.14200   0.35100   1.000
    C328    C    0.36900   0.06800   0.60100   1.000
    C329    C    0.40500   0.09700   0.62180   1.000
    H323    H    0.41120   0.09390   0.65090   1.000
    C330    C    0.43300   0.13300   0.59900   1.000
    C331    C    0.42500   0.14000   0.55500   1.000
    H324    H    0.44340   0.16320   0.53950   1.000
    C332    C    0.38800   0.11000   0.53470   1.000
    C333    C    0.36000   0.07400   0.55800   1.000
    H325    H    0.33570   0.05430   0.54420   1.000
    C334    C    0.35900   0.12900   0.40200   1.000
    C335    C    0.40000   0.14100   0.41300   1.000
    C336    C    0.40900   0.13400   0.45600   1.000
    H326    H    0.43670   0.14180   0.46340   1.000
    C337    C    0.37800   0.11600   0.48800   1.000
    C338    C    0.33800   0.10600   0.47700   1.000
    H327    H    0.31670   0.09330   0.49840   1.000
    C339    C    0.32800   0.11100   0.43400   1.000
    C340    C    0.22200   0.77900   0.75000   1.000
    C341    C    0.24800   0.92100   0.69700   1.000
    C342    C    0.34900   0.13700   0.35500   1.000
    C343    C    0.47100   0.16500   0.62200   1.000
    C344    C    0.49300   0.15300   0.65000   1.000
    H328    H    0.48310   0.12470   0.65580   1.000
    C345    C    0.52900   0.18200   0.67100   1.000
    C346    C    0.54400   0.22500   0.66300   1.000
    C347    C    0.52200   0.23600   0.63400   1.000
    C348    C    0.48600   0.20700   0.61400   1.000
    H329    H    0.47150   0.21490   0.59490   1.000
    O86     O    0.61500   0.28800   0.66900   1.000
    C349    C    0.11300   0.88600   0.75000   1.000
    C350    C    0.52900   0.28200   0.61700   1.000
    H330    H    0.54790   0.29190   0.59240   1.000
    H331    H    0.54110   0.30220   0.64120   1.000
    H332    H    0.50300   0.27930   0.60880   1.000
    O87     O    0.12800   0.88900   0.71200   1.000
    O88     O    0.24200   0.81700   0.75000   1.000
    C351    C    0.10300   0.94800   0.72400   1.000
    C352    C    0.30400   0.74900   0.77100   1.000
    H333    H    0.32950   0.76060   0.78590   1.000
    C353    C    0.08100   0.97000   0.72400   1.000
    H334    H    0.09050   0.99410   0.70760   1.000
    C354    C    0.14100   0.97100   0.69300   1.000
    H335    H    0.14630   0.99740   0.68710   1.000
    H336    H    0.13500   0.95440   0.66590   1.000
    H337    H    0.16430   0.97080   0.70760   1.000
    C355    C    0.28300   0.77100   0.77100   1.000
    C356    C    0.30800   0.80800   0.79700   1.000
    H338    H    0.30880   0.83340   0.78130   1.000
    H339    H    0.33630   0.81580   0.80020   1.000
    H340    H    0.29630   0.80800   0.82590   1.000
    C357    C    0.22500   0.96700   0.62500   1.000
    H341    H    0.22220   0.95840   0.59440   1.000
    H342    H    0.22190   0.99130   0.62680   1.000
    H343    H    0.20420   0.94520   0.64260   1.000
    C358    C    0.43800   0.16200   0.38300   1.000
    H344    H    0.44490   0.14130   0.37270   1.000
    H345    H    0.46080   0.18300   0.39900   1.000
    H346    H    0.43170   0.17350   0.35760   1.000
    Zn29    Zn   0.18810   0.88690   0.77750   1.000
    Zn30    Zn   0.20710   0.83580   0.70560   1.000
    O89     O    0.36500   0.17700   0.34900   1.000
    O90     O    0.23100   0.92600   0.73500   1.000
    O91     O    0.32200   0.11200   0.33800   1.000
    O92     O    0.24800   0.89000   0.68700   1.000
    C359    C    0.28800   0.95600   0.62600   1.000
    C360    C    0.38600   0.15500   0.47500   1.000
    H347    H    0.39790   0.17750   0.49460   1.000
    C361    C    0.31700   0.99200   0.60300   1.000
    H348    H    0.32120   0.99050   0.57280   1.000
    C362    C    0.36100   0.08400   0.45800   1.000
    H349    H    0.35530   0.05770   0.46720   1.000
    C363    C    0.35200   0.09000   0.41500   1.000
    C364    C    0.30200   0.99600   0.69500   1.000
    C365    C    0.37700   0.16200   0.43200   1.000
    C366    C    0.33100   0.03200   0.67100   1.000
    H350    H    0.34540   0.05790   0.68530   1.000
    C367    C    0.50500   0.19000   0.59900   1.000
    H351    H    0.50630   0.18720   0.56860   1.000
    C368    C    0.50900   0.19800   0.68700   1.000
    C369    C    0.47600   0.17300   0.66600   1.000
    H352    H    0.45230   0.15700   0.68400   1.000
    C370    C    0.53600   0.21900   0.62000   1.000
    O93     O    0.60600   0.24400   0.69400   1.000
    O94     O    0.57800   0.29000   0.69100   1.000
    O95     O    0.15600   0.90600   0.77500   1.000
    O96     O    0.23600   0.80600   0.72300   1.000
    C371    C    0.28300   0.77200   0.72900   1.000
    C372    C    0.30200   0.80600   0.69500   1.000
    H353    H    0.28180   0.80360   0.67370   1.000
    H354    H    0.32450   0.80510   0.67960   1.000
    H355    H    0.31360   0.83290   0.70970   1.000
    C373    C    0.08000   0.96900   0.77700   1.000
    H356    H    0.08970   0.99290   0.79420   1.000
    C374    C    0.30400   0.74900   0.72900   1.000
    H357    H    0.32930   0.75940   0.71330   1.000
    C375    C    0.10200   0.94700   0.77700   1.000
    C376    C    0.33200   0.05200   0.39000   1.000
    H358    H    0.35150   0.03980   0.38700   1.000
    H359    H    0.32550   0.05480   0.35950   1.000
    H360    H    0.30740   0.02970   0.40370   1.000
    C377    C    0.30000   0.00500   0.74400   1.000
    H361    H    0.28870   0.02210   0.74780   1.000
    H362    H    0.31970   0.00650   0.76020   1.000
    H363    H    0.27210   0.97430   0.75410   1.000
    C378    C    0.50000   0.20000   0.74000   1.000
    H364    H    0.47530   0.19940   0.74500   1.000
    H365    H    0.52070   0.21030   0.75760   1.000
    H366    H    0.48650   0.16390   0.74840   1.000
    C379    C    0.39000   0.20800   0.43000   1.000
    H367    H    0.36540   0.21000   0.42520   1.000
    H368    H    0.40860   0.22040   0.40520   1.000
    H369    H    0.40310   0.22100   0.45700   1.000
    C380    C    0.26600   0.91500   0.60200   1.000
    H370    H    0.24950   0.91720   0.57810   1.000
    H371    H    0.24740   0.89360   0.62230   1.000
    H372    H    0.28540   0.90820   0.58990   1.000
    C381    C    0.13800   0.97800   0.81100   1.000
    H373    H    0.14070   0.95440   0.83090   1.000
    H374    H    0.13130   0.99110   0.82740   1.000
    H375    H    0.16360   0.98940   0.79500   1.000
    C382    C    0.55000   0.16000   0.70100   1.000
    H376    H    0.54690   0.16370   0.73170   1.000
    H377    H    0.57900   0.17220   0.69350   1.000
    H378    H    0.53600   0.13080   0.69380   1.000
    C383    C    0.28200   0.09800   0.42800   1.000
    H379    H    0.27890   0.11400   0.40400   1.000
    H380    H    0.27070   0.10250   0.45460   1.000
    H381    H    0.26620   0.06900   0.41990   1.000
    C384    C    0.34100   0.95600   0.71100   1.000
    H382    H    0.31970   0.92900   0.71970   1.000
    H383    H    0.35150   0.97370   0.73690   1.000
    H384    H    0.36360   0.95450   0.69720   1.000
    Zn31    Zn   0.77560   0.63410   0.26120   1.000
    Zn32    Zn   0.84300   0.70370   0.19820   1.000
    Zn33    Zn   0.37770   0.65840   0.28020   1.000
    O97     O    0.74000   0.64600   0.22500   1.000
    O98     O    0.63200   0.76100   0.82300   1.000
    O99     O    0.40900   0.65800   0.22800   1.000
    O100    O    0.78800   0.69300   0.17900   1.000
    C385    C    0.71900   0.67800   0.17100   1.000
    C386    C    0.67600   0.65100   0.17800   1.000
    C387    C    0.64770   0.65800   0.15500   1.000
    H385    H    0.61930   0.64020   0.16010   1.000
    C388    C    0.66100   0.69100   0.12600   1.000
    C389    C    0.70400   0.71700   0.11900   1.000
    H386    H    0.71270   0.73900   0.09850   1.000
    C390    C    0.73240   0.71000   0.14100   1.000
    C391    C    0.41800   0.67400   0.18800   1.000
    O101    O    0.68300   0.82500   0.85100   1.000
    C392    C    0.63100   0.69900   0.10100   1.000
    C393    C    0.59500   0.69200   0.12180   1.000
    H387    H    0.58880   0.68270   0.15090   1.000
    C394    C    0.56700   0.70000   0.09900   1.000
    C395    C    0.57500   0.71500   0.05500   1.000
    H388    H    0.55660   0.71980   0.03950   1.000
    C396    C    0.61200   0.72200   0.03470   1.000
    C397    C    0.64000   0.71400   0.05800   1.000
    H389    H    0.66430   0.71860   0.04420   1.000
    C398    C    0.64100   0.77000   0.90200   1.000
    C399    C    0.60000   0.74100   0.91300   1.000
    C400    C    0.59100   0.72500   0.95600   1.000
    H390    H    0.56330   0.70510   0.96340   1.000
    C401    C    0.62200   0.73800   0.98800   1.000
    C402    C    0.66200   0.76800   0.97700   1.000
    H391    H    0.68330   0.77660   0.99840   1.000
    C403    C    0.67200   0.78300   0.93400   1.000
    C404    C    0.77800   0.55700   0.25000   1.000
    C405    C    0.75200   0.67300   0.19700   1.000
    C406    C    0.65100   0.78800   0.85500   1.000
    C407    C    0.52900   0.69400   0.12200   1.000
    C408    C    0.50700   0.66000   0.15000   1.000
    H392    H    0.51690   0.64160   0.15580   1.000
    C409    C    0.47100   0.65300   0.17100   1.000
    C410    C    0.45600   0.68100   0.16300   1.000
    C411    C    0.47800   0.71400   0.13400   1.000
    C412    C    0.51400   0.72100   0.11400   1.000
    H393    H    0.52850   0.74340   0.09490   1.000
    O102    O    0.38500   0.67300   0.16900   1.000
    C413    C    0.88700   0.77300   0.25000   1.000
    C414    C    0.47100   0.75300   0.11700   1.000
    H394    H    0.45210   0.74400   0.09240   1.000
    H395    H    0.45890   0.76110   0.14120   1.000
    H396    H    0.49700   0.77630   0.10880   1.000
    O103    O    0.87200   0.76100   0.21200   1.000
    O104    O    0.75800   0.57500   0.25000   1.000
    C415    C    0.89700   0.84500   0.22400   1.000
    C416    C    0.69600   0.44500   0.27100   1.000
    H397    H    0.67050   0.43110   0.28590   1.000
    C417    C    0.91900   0.88900   0.22400   1.000
    H398    H    0.90950   0.90360   0.20760   1.000
    C418    C    0.85900   0.83000   0.19300   1.000
    H399    H    0.85370   0.85110   0.18710   1.000
    H400    H    0.86500   0.81940   0.16590   1.000
    H401    H    0.83570   0.80650   0.20760   1.000
    C419    C    0.71700   0.48800   0.27100   1.000
    C420    C    0.69200   0.50000   0.29700   1.000
    H402    H    0.69120   0.52460   0.28130   1.000
    H403    H    0.66370   0.47950   0.30020   1.000
    H404    H    0.70370   0.51170   0.32590   1.000
    C421    C    0.77500   0.74200   0.12500   1.000
    H405    H    0.77780   0.73620   0.09440   1.000
    H406    H    0.77810   0.76940   0.12680   1.000
    H407    H    0.79580   0.74100   0.14260   1.000
    C422    C    0.56200   0.72400   0.88300   1.000
    H408    H    0.55510   0.69640   0.87270   1.000
    H409    H    0.53920   0.72220   0.89900   1.000
    H410    H    0.56830   0.74180   0.85760   1.000
    Zn34    Zn   0.81190   0.69880   0.27750   1.000
    Zn35    Zn   0.79290   0.62870   0.20560   1.000
    O105    O    0.63500   0.81200   0.84900   1.000
    O106    O    0.76900   0.69500   0.23500   1.000
    O107    O    0.67800   0.79000   0.83800   1.000
    O108    O    0.75200   0.64200   0.18700   1.000
    C423    C    0.71200   0.66800   0.12600   1.000
    C424    C    0.61400   0.76900   0.97500   1.000
    H411    H    0.60210   0.77960   0.99460   1.000
    C425    C    0.68300   0.67500   0.10300   1.000
    H412    H    0.67880   0.66930   0.07280   1.000
    C426    C    0.63900   0.72300   0.95800   1.000
    H413    H    0.64470   0.70240   0.96720   1.000
    C427    C    0.64800   0.73800   0.91500   1.000
    C428    C    0.69800   0.69400   0.19500   1.000
    C429    C    0.62300   0.78500   0.93200   1.000
    C430    C    0.66900   0.70100   0.17100   1.000
    H414    H    0.65460   0.71250   0.18530   1.000
    C431    C    0.49500   0.68500   0.09900   1.000
    H415    H    0.49370   0.68090   0.06860   1.000
    C432    C    0.49100   0.68900   0.18700   1.000
    C433    C    0.52400   0.69700   0.16600   1.000
    H416    H    0.54770   0.70470   0.18400   1.000
    C434    C    0.46400   0.68300   0.12000   1.000
    O109    O    0.39400   0.63800   0.19400   1.000
    O110    O    0.42200   0.71200   0.19100   1.000
    O111    O    0.84400   0.75000   0.27500   1.000
    O112    O    0.76400   0.57000   0.22300   1.000
    C435    C    0.71700   0.48900   0.22900   1.000
    C436    C    0.69800   0.50400   0.19500   1.000
    H417    H    0.71820   0.52180   0.17370   1.000
    H418    H    0.67550   0.48060   0.17960   1.000
    H419    H    0.68640   0.51930   0.20970   1.000
    C437    C    0.92000   0.88900   0.27700   1.000
    H420    H    0.91030   0.90320   0.29420   1.000
    C438    C    0.69600   0.44500   0.22900   1.000
    H421    H    0.67070   0.43010   0.21330   1.000
    C439    C    0.89800   0.84500   0.27700   1.000
    C440    C    0.66800   0.72000   0.89000   1.000
    H422    H    0.64850   0.68830   0.88700   1.000
    H423    H    0.67450   0.72930   0.85950   1.000
    H424    H    0.69260   0.72230   0.90370   1.000
    C441    C    0.70000   0.70500   0.24400   1.000
    H425    H    0.71130   0.73340   0.24780   1.000
    H426    H    0.68030   0.68680   0.26020   1.000
    H427    H    0.72790   0.70220   0.25410   1.000
    C442    C    0.50000   0.70000   0.24000   1.000
    H428    H    0.52470   0.72410   0.24500   1.000
    H429    H    0.47930   0.68960   0.25760   1.000
    H430    H    0.51350   0.67740   0.24840   1.000
    C443    C    0.61000   0.81800   0.93000   1.000
    H431    H    0.63460   0.84460   0.92520   1.000
    H432    H    0.59140   0.81180   0.90520   1.000
    H433    H    0.59690   0.81790   0.95700   1.000
    C444    C    0.73400   0.64900   0.10200   1.000
    H434    H    0.75050   0.66770   0.07810   1.000
    H435    H    0.75260   0.64620   0.12230   1.000
    H436    H    0.71460   0.62280   0.08990   1.000
    C445    C    0.86200   0.84000   0.31100   1.000
    H437    H    0.85930   0.81370   0.33090   1.000
    H438    H    0.86870   0.85980   0.32740   1.000
    H439    H    0.83640   0.82580   0.29500   1.000
    C446    C    0.45000   0.61000   0.20100   1.000
    H440    H    0.45310   0.61680   0.23170   1.000
    H441    H    0.42100   0.59320   0.19350   1.000
    H442    H    0.46400   0.59480   0.19380   1.000
    C447    C    0.71800   0.81600   0.92800   1.000
    H443    H    0.72110   0.83510   0.90400   1.000
    H444    H    0.72930   0.83180   0.95460   1.000
    H445    H    0.73380   0.80280   0.91990   1.000
    C448    C    0.65900   0.61500   0.21100   1.000
    H446    H    0.68030   0.60930   0.21970   1.000
    H447    H    0.64850   0.62220   0.23690   1.000
    H448    H    0.63640   0.59090   0.19720   1.000
    Zn36    Zn   0.36590   0.14150   0.26120   1.000
    Zn37    Zn   0.29630   0.13930   0.19820   1.000
    Zn38    Zn   0.34160   0.71930   0.28020   1.000
    O113    O    0.35400   0.09400   0.22500   1.000
    O114    O    0.23900   0.87100   0.82300   1.000
    O115    O    0.34200   0.75100   0.22800   1.000
    O116    O    0.30700   0.09500   0.17900   1.000
    C449    C    0.32200   0.04100   0.17100   1.000
    C450    C    0.34900   0.02500   0.17800   1.000
    C451    C    0.34200   0.98970   0.15500   1.000
    H449    H    0.35980   0.97910   0.16010   1.000
    C452    C    0.30900   0.97000   0.12600   1.000
    C453    C    0.28300   0.98700   0.11900   1.000
    H450    H    0.26100   0.97370   0.09850   1.000
    C454    C    0.29000   0.02240   0.14100   1.000
    C455    C    0.32600   0.74400   0.18800   1.000
    O117    O    0.17500   0.85800   0.85100   1.000
    C456    C    0.30100   0.93200   0.10100   1.000
    C457    C    0.30800   0.90300   0.12180   1.000
    H451    H    0.31730   0.90610   0.15090   1.000
    C458    C    0.30000   0.86700   0.09900   1.000
    C459    C    0.28500   0.86000   0.05500   1.000
    H452    H    0.28020   0.83680   0.03950   1.000
    C460    C    0.27800   0.89000   0.03470   1.000
    C461    C    0.28600   0.92600   0.05800   1.000
    H453    H    0.28140   0.94570   0.04420   1.000
    C462    C    0.23000   0.87100   0.90200   1.000
    C463    C    0.25900   0.85900   0.91300   1.000
    C464    C    0.27500   0.86600   0.95600   1.000
    H454    H    0.29490   0.85820   0.96340   1.000
    C465    C    0.26200   0.88400   0.98800   1.000
    C466    C    0.23200   0.89400   0.97700   1.000
    H455    H    0.22340   0.90670   0.99840   1.000
    C467    C    0.21700   0.88900   0.93400   1.000
    C468    C    0.44300   0.22100   0.25000   1.000
    C469    C    0.32700   0.07900   0.19700   1.000
    C470    C    0.21200   0.86300   0.85500   1.000
    C471    C    0.30600   0.83500   0.12200   1.000
    C472    C    0.34000   0.84700   0.15000   1.000
    H456    H    0.35840   0.87530   0.15580   1.000
    C473    C    0.34700   0.81800   0.17100   1.000
    C474    C    0.31900   0.77500   0.16300   1.000
    C475    C    0.28600   0.76400   0.13400   1.000
    C476    C    0.27900   0.79300   0.11400   1.000
    H457    H    0.25660   0.78510   0.09490   1.000
    O118    O    0.32700   0.71200   0.16900   1.000
    C477    C    0.22700   0.11400   0.25000   1.000
    C478    C    0.24700   0.71800   0.11700   1.000
    H458    H    0.25600   0.70810   0.09240   1.000
    H459    H    0.23890   0.69780   0.14120   1.000
    H460    H    0.22370   0.72070   0.10880   1.000
    O119    O    0.23900   0.11100   0.21200   1.000
    O120    O    0.42500   0.18300   0.25000   1.000
    C479    C    0.15500   0.05200   0.22400   1.000
    C480    C    0.55500   0.25100   0.27100   1.000
    H461    H    0.56890   0.23940   0.28590   1.000
    C481    C    0.11100   0.03000   0.22400   1.000
    H462    H    0.09640   0.00590   0.20760   1.000
    C482    C    0.17000   0.02900   0.19300   1.000
    H463    H    0.14890   0.00260   0.18710   1.000
    H464    H    0.18060   0.04560   0.16590   1.000
    H465    H    0.19350   0.02920   0.20760   1.000
    C483    C    0.51200   0.22900   0.27100   1.000
    C484    C    0.50000   0.19200   0.29700   1.000
    H466    H    0.47540   0.16660   0.28130   1.000
    H467    H    0.52050   0.18420   0.30020   1.000
    H468    H    0.48830   0.19200   0.32590   1.000
    C485    C    0.25800   0.03300   0.12500   1.000
    H469    H    0.26380   0.04160   0.09440   1.000
    H470    H    0.23060   0.00870   0.12680   1.000
    H471    H    0.25900   0.05480   0.14260   1.000
    C486    C    0.27600   0.83800   0.88300   1.000
    H472    H    0.30360   0.85870   0.87270   1.000
    H473    H    0.27780   0.81700   0.89900   1.000
    H474    H    0.25820   0.82650   0.85760   1.000
    Zn39    Zn   0.30120   0.11310   0.27750   1.000
    Zn40    Zn   0.37130   0.16420   0.20560   1.000
    O121    O    0.18800   0.82300   0.84900   1.000
    O122    O    0.30500   0.07400   0.23500   1.000
    O123    O    0.21000   0.88800   0.83800   1.000
    O124    O    0.35800   0.11000   0.18700   1.000
    C487    C    0.33200   0.04400   0.12600   1.000
    C488    C    0.23100   0.84500   0.97500   1.000
    H475    H    0.22040   0.82250   0.99460   1.000
    C489    C    0.32500   0.00800   0.10300   1.000
    H476    H    0.33070   0.00950   0.07280   1.000
    C490    C    0.27700   0.91600   0.95800   1.000
    H477    H    0.29760   0.94230   0.96720   1.000
    C491    C    0.26200   0.91000   0.91500   1.000
    C492    C    0.30600   0.00400   0.19500   1.000
    C493    C    0.21500   0.83800   0.93200   1.000
    C494    C    0.29900   0.96800   0.17100   1.000
    H478    H    0.28750   0.94210   0.18530   1.000
    C495    C    0.31500   0.81000   0.09900   1.000
    H479    H    0.31910   0.81280   0.06860   1.000
    C496    C    0.31100   0.80200   0.18700   1.000
    C497    C    0.30300   0.82700   0.16600   1.000
    H480    H    0.29530   0.84300   0.18400   1.000
    C498    C    0.31700   0.78100   0.12000   1.000
    O125    O    0.36200   0.75600   0.19400   1.000
    O126    O    0.28800   0.71000   0.19100   1.000
    O127    O    0.25000   0.09400   0.27500   1.000
    O128    O    0.43000   0.19400   0.22300   1.000
    C499    C    0.51100   0.22800   0.22900   1.000
    C500    C    0.49600   0.19400   0.19500   1.000
    H481    H    0.47820   0.19640   0.17370   1.000
    H482    H    0.51940   0.19490   0.17960   1.000
    H483    H    0.48070   0.16710   0.20970   1.000
    C501    C    0.11100   0.03100   0.27700   1.000
    H484    H    0.09680   0.00710   0.29420   1.000
    C502    C    0.55500   0.25100   0.22900   1.000
    H485    H    0.56990   0.24060   0.21330   1.000
    C503    C    0.15500   0.05300   0.27700   1.000
    C504    C    0.28000   0.94800   0.89000   1.000
    H486    H    0.31170   0.96020   0.88700   1.000
    H487    H    0.27070   0.94520   0.85950   1.000
    H488    H    0.27770   0.97030   0.90370   1.000
    C505    C    0.29500   0.99500   0.24400   1.000
    H489    H    0.26660   0.97790   0.24780   1.000
    H490    H    0.31320   0.99350   0.26020   1.000
    H491    H    0.29780   0.02570   0.25410   1.000
    C506    C    0.30000   0.80000   0.24000   1.000
    H492    H    0.27590   0.80060   0.24500   1.000
    H493    H    0.31040   0.78970   0.25760   1.000
    H494    H    0.32260   0.83610   0.24840   1.000
    C507    C    0.18200   0.79200   0.93000   1.000
    H495    H    0.15540   0.79000   0.92520   1.000
    H496    H    0.18820   0.77960   0.90520   1.000
    H497    H    0.18210   0.77900   0.95700   1.000
    C508    C    0.35100   0.08500   0.10200   1.000
    H498    H    0.33230   0.08280   0.07810   1.000
    H499    H    0.35380   0.10640   0.12230   1.000
    H500    H    0.37720   0.09180   0.08990   1.000
    C509    C    0.16000   0.02200   0.31100   1.000
    H501    H    0.18630   0.04560   0.33090   1.000
    H502    H    0.14020   0.00890   0.32740   1.000
    H503    H    0.17420   0.01060   0.29500   1.000
    C510    C    0.39000   0.84000   0.20100   1.000
    H504    H    0.38320   0.83630   0.23170   1.000
    H505    H    0.40680   0.82780   0.19350   1.000
    H506    H    0.40520   0.86920   0.19380   1.000
    C511    C    0.18400   0.90200   0.92800   1.000
    H507    H    0.16490   0.88600   0.90400   1.000
    H508    H    0.16820   0.89750   0.95460   1.000
    H509    H    0.19720   0.93100   0.91990   1.000
    C512    C    0.38500   0.04400   0.21100   1.000
    H510    H    0.39070   0.07100   0.21970   1.000
    H511    H    0.37780   0.02630   0.23690   1.000
    H512    H    0.40910   0.04550   0.19720   1.000
    Zn41    Zn   0.85850   0.22440   0.26120   1.000
    Zn42    Zn   0.86070   0.15700   0.19820   1.000
    Zn43    Zn   0.28070   0.62230   0.28020   1.000
    O129    O    0.90600   0.26000   0.22500   1.000
    O130    O    0.12900   0.36800   0.82300   1.000
    O131    O    0.24900   0.59100   0.22800   1.000
    O132    O    0.90500   0.21200   0.17900   1.000
    C513    C    0.95900   0.28100   0.17100   1.000
    C514    C    0.97500   0.32400   0.17800   1.000
    C515    C    0.01030   0.35230   0.15500   1.000
    H513    H    0.02090   0.38070   0.16010   1.000
    C516    C    0.03000   0.33900   0.12600   1.000
    C517    C    0.01300   0.29600   0.11900   1.000
    H514    H    0.02630   0.28730   0.09850   1.000
    C518    C    0.97760   0.26760   0.14100   1.000
    C519    C    0.25600   0.58200   0.18800   1.000
    O133    O    0.14200   0.31700   0.85100   1.000
    C520    C    0.06800   0.36900   0.10100   1.000
    C521    C    0.09700   0.40500   0.12180   1.000
    H515    H    0.09390   0.41120   0.15090   1.000
    C522    C    0.13300   0.43300   0.09900   1.000
    C523    C    0.14000   0.42500   0.05500   1.000
    H516    H    0.16320   0.44340   0.03950   1.000
    C524    C    0.11000   0.38800   0.03470   1.000
    C525    C    0.07400   0.36000   0.05800   1.000
    H517    H    0.05430   0.33570   0.04420   1.000
    C526    C    0.12900   0.35900   0.90200   1.000
    C527    C    0.14100   0.40000   0.91300   1.000
    C528    C    0.13400   0.40900   0.95600   1.000
    H518    H    0.14180   0.43670   0.96340   1.000
    C529    C    0.11600   0.37800   0.98800   1.000
    C530    C    0.10600   0.33800   0.97700   1.000
    H519    H    0.09330   0.31670   0.99840   1.000
    C531    C    0.11100   0.32800   0.93400   1.000
    C532    C    0.77900   0.22200   0.25000   1.000
    C533    C    0.92100   0.24800   0.19700   1.000
    C534    C    0.13700   0.34900   0.85500   1.000
    C535    C    0.16500   0.47100   0.12200   1.000
    C536    C    0.15300   0.49300   0.15000   1.000
    H520    H    0.12470   0.48310   0.15580   1.000
    C537    C    0.18200   0.52900   0.17100   1.000
    C538    C    0.22500   0.54400   0.16300   1.000
    C539    C    0.23600   0.52200   0.13400   1.000
    C540    C    0.20700   0.48600   0.11400   1.000
    H521    H    0.21490   0.47150   0.09490   1.000
    O134    O    0.28800   0.61500   0.16900   1.000
    C541    C    0.88600   0.11300   0.25000   1.000
    C542    C    0.28200   0.52900   0.11700   1.000
    H522    H    0.29190   0.54790   0.09240   1.000
    H523    H    0.30220   0.54110   0.14120   1.000
    H524    H    0.27930   0.50300   0.10880   1.000
    O135    O    0.88900   0.12800   0.21200   1.000
    O136    O    0.81700   0.24200   0.25000   1.000
    C543    C    0.94800   0.10300   0.22400   1.000
    C544    C    0.74900   0.30400   0.27100   1.000
    H525    H    0.76060   0.32950   0.28590   1.000
    C545    C    0.97000   0.08100   0.22400   1.000
    H526    H    0.99410   0.09050   0.20760   1.000
    C546    C    0.97100   0.14100   0.19300   1.000
    H527    H    0.99740   0.14630   0.18710   1.000
    H528    H    0.95440   0.13500   0.16590   1.000
    H529    H    0.97080   0.16430   0.20760   1.000
    C547    C    0.77100   0.28300   0.27100   1.000
    C548    C    0.80800   0.30800   0.29700   1.000
    H530    H    0.83340   0.30880   0.28130   1.000
    H531    H    0.81580   0.33630   0.30020   1.000
    H532    H    0.80800   0.29630   0.32590   1.000
    C549    C    0.96700   0.22500   0.12500   1.000
    H533    H    0.95840   0.22220   0.09440   1.000
    H534    H    0.99130   0.22190   0.12680   1.000
    H535    H    0.94520   0.20420   0.14260   1.000
    C550    C    0.16200   0.43800   0.88300   1.000
    H536    H    0.14130   0.44490   0.87270   1.000
    H537    H    0.18300   0.46080   0.89900   1.000
    H538    H    0.17350   0.43170   0.85760   1.000
    Zn44    Zn   0.88690   0.18810   0.27750   1.000
    Zn45    Zn   0.83580   0.20710   0.20560   1.000
    O137    O    0.17700   0.36500   0.84900   1.000
    O138    O    0.92600   0.23100   0.23500   1.000
    O139    O    0.11200   0.32200   0.83800   1.000
    O140    O    0.89000   0.24800   0.18700   1.000
    C551    C    0.95600   0.28800   0.12600   1.000
    C552    C    0.15500   0.38600   0.97500   1.000
    H539    H    0.17750   0.39790   0.99460   1.000
    C553    C    0.99200   0.31700   0.10300   1.000
    H540    H    0.99050   0.32120   0.07280   1.000
    C554    C    0.08400   0.36100   0.95800   1.000
    H541    H    0.05770   0.35530   0.96720   1.000
    C555    C    0.09000   0.35200   0.91500   1.000
    C556    C    0.99600   0.30200   0.19500   1.000
    C557    C    0.16200   0.37700   0.93200   1.000
    C558    C    0.03200   0.33100   0.17100   1.000
    H542    H    0.05790   0.34540   0.18530   1.000
    C559    C    0.19000   0.50500   0.09900   1.000
    H543    H    0.18720   0.50630   0.06860   1.000
    C560    C    0.19800   0.50900   0.18700   1.000
    C561    C    0.17300   0.47600   0.16600   1.000
    H544    H    0.15700   0.45230   0.18400   1.000
    C562    C    0.21900   0.53600   0.12000   1.000
    O141    O    0.24400   0.60600   0.19400   1.000
    O142    O    0.29000   0.57800   0.19100   1.000
    O143    O    0.90600   0.15600   0.27500   1.000
    O144    O    0.80600   0.23600   0.22300   1.000
    C563    C    0.77200   0.28300   0.22900   1.000
    C564    C    0.80600   0.30200   0.19500   1.000
    H545    H    0.80360   0.28180   0.17370   1.000
    H546    H    0.80510   0.32450   0.17960   1.000
    H547    H    0.83290   0.31360   0.20970   1.000
    C565    C    0.96900   0.08000   0.27700   1.000
    H548    H    0.99290   0.08970   0.29420   1.000
    C566    C    0.74900   0.30400   0.22900   1.000
    H549    H    0.75940   0.32930   0.21330   1.000
    C567    C    0.94700   0.10200   0.27700   1.000
    C568    C    0.05200   0.33200   0.89000   1.000
    H550    H    0.03980   0.35150   0.88700   1.000
    H551    H    0.05480   0.32550   0.85950   1.000
    H552    H    0.02970   0.30740   0.90370   1.000
    C569    C    0.00500   0.30000   0.24400   1.000
    H553    H    0.02210   0.28870   0.24780   1.000
    H554    H    0.00650   0.31970   0.26020   1.000
    H555    H    0.97430   0.27210   0.25410   1.000
    C570    C    0.20000   0.50000   0.24000   1.000
    H556    H    0.19940   0.47530   0.24500   1.000
    H557    H    0.21030   0.52070   0.25760   1.000
    H558    H    0.16390   0.48650   0.24840   1.000
    C571    C    0.20800   0.39000   0.93000   1.000
    H559    H    0.21000   0.36540   0.92520   1.000
    H560    H    0.22040   0.40860   0.90520   1.000
    H561    H    0.22100   0.40310   0.95700   1.000
    C572    C    0.91500   0.26600   0.10200   1.000
    H562    H    0.91720   0.24950   0.07810   1.000
    H563    H    0.89360   0.24740   0.12230   1.000
    H564    H    0.90820   0.28540   0.08990   1.000
    C573    C    0.97800   0.13800   0.31100   1.000
    H565    H    0.95440   0.14070   0.33090   1.000
    H566    H    0.99110   0.13130   0.32740   1.000
    H567    H    0.98940   0.16360   0.29500   1.000
    C574    C    0.16000   0.55000   0.20100   1.000
    H568    H    0.16370   0.54690   0.23170   1.000
    H569    H    0.17220   0.57900   0.19350   1.000
    H570    H    0.13080   0.53600   0.19380   1.000
    C575    C    0.09800   0.28200   0.92800   1.000
    H571    H    0.11400   0.27890   0.90400   1.000
    H572    H    0.10250   0.27070   0.95460   1.000
    H573    H    0.06900   0.26620   0.91990   1.000
    C576    C    0.95600   0.34100   0.21100   1.000
    H574    H    0.92900   0.31970   0.21970   1.000
    H575    H    0.97370   0.35150   0.23690   1.000
    H576    H    0.95450   0.36360   0.19720   1.000
    Zn46    Zn   0.36590   0.22440   0.23880   1.000
    Zn47    Zn   0.29630   0.15700   0.30180   1.000
    Zn48    Zn   0.34160   0.62230   0.21980   1.000
    O145    O    0.35400   0.26000   0.27500   1.000
    O146    O    0.23900   0.36800   0.67700   1.000
    O147    O    0.34200   0.59100   0.27200   1.000
    O148    O    0.30700   0.21200   0.32100   1.000
    C577    C    0.32200   0.28100   0.32900   1.000
    C578    C    0.34900   0.32400   0.32200   1.000
    C579    C    0.34200   0.35230   0.34500   1.000
    H577    H    0.35980   0.38070   0.33990   1.000
    C580    C    0.30900   0.33900   0.37400   1.000
    C581    C    0.28300   0.29600   0.38100   1.000
    H578    H    0.26100   0.28730   0.40150   1.000
    C582    C    0.29000   0.26760   0.35900   1.000
    C583    C    0.32600   0.58200   0.31200   1.000
    O149    O    0.17500   0.31700   0.64900   1.000
    C584    C    0.30100   0.36900   0.39900   1.000
    C585    C    0.30800   0.40500   0.37820   1.000
    H579    H    0.31730   0.41120   0.34910   1.000
    C586    C    0.30000   0.43300   0.40100   1.000
    C587    C    0.28500   0.42500   0.44500   1.000
    H580    H    0.28020   0.44340   0.46050   1.000
    C588    C    0.27800   0.38800   0.46530   1.000
    C589    C    0.28600   0.36000   0.44200   1.000
    H581    H    0.28140   0.33570   0.45580   1.000
    C590    C    0.23000   0.35900   0.59800   1.000
    C591    C    0.25900   0.40000   0.58700   1.000
    C592    C    0.27500   0.40900   0.54400   1.000
    H582    H    0.29490   0.43670   0.53660   1.000
    C593    C    0.26200   0.37800   0.51200   1.000
    C594    C    0.23200   0.33800   0.52300   1.000
    H583    H    0.22340   0.31670   0.50160   1.000
    C595    C    0.21700   0.32800   0.56600   1.000
    C596    C    0.44300   0.22200   0.25000   1.000
    C597    C    0.32700   0.24800   0.30300   1.000
    C598    C    0.21200   0.34900   0.64500   1.000
    C599    C    0.30600   0.47100   0.37800   1.000
    C600    C    0.34000   0.49300   0.35000   1.000
    H584    H    0.35840   0.48310   0.34420   1.000
    C601    C    0.34700   0.52900   0.32900   1.000
    C602    C    0.31900   0.54400   0.33700   1.000
    C603    C    0.28600   0.52200   0.36600   1.000
    C604    C    0.27900   0.48600   0.38600   1.000
    H585    H    0.25660   0.47150   0.40510   1.000
    O150    O    0.32700   0.61500   0.33100   1.000
    C605    C    0.22700   0.11300   0.25000   1.000
    C606    C    0.24700   0.52900   0.38300   1.000
    H586    H    0.25600   0.54790   0.40760   1.000
    H587    H    0.23890   0.54110   0.35880   1.000
    H588    H    0.22370   0.50300   0.39120   1.000
    O151    O    0.23900   0.12800   0.28800   1.000
    O152    O    0.42500   0.24200   0.25000   1.000
    C607    C    0.15500   0.10300   0.27600   1.000
    C608    C    0.55500   0.30400   0.22900   1.000
    H589    H    0.56890   0.32950   0.21410   1.000
    C609    C    0.11100   0.08100   0.27600   1.000
    H590    H    0.09640   0.09050   0.29240   1.000
    C610    C    0.17000   0.14100   0.30700   1.000
    H591    H    0.14890   0.14630   0.31290   1.000
    H592    H    0.18060   0.13500   0.33410   1.000
    H593    H    0.19350   0.16430   0.29240   1.000
    C611    C    0.51200   0.28300   0.22900   1.000
    C612    C    0.50000   0.30800   0.20300   1.000
    H594    H    0.47540   0.30880   0.21870   1.000
    H595    H    0.52050   0.33630   0.19980   1.000
    H596    H    0.48830   0.29630   0.17410   1.000
    C613    C    0.25800   0.22500   0.37500   1.000
    H597    H    0.26380   0.22220   0.40560   1.000
    H598    H    0.23060   0.22190   0.37320   1.000
    H599    H    0.25900   0.20420   0.35740   1.000
    C614    C    0.27600   0.43800   0.61700   1.000
    H600    H    0.30360   0.44490   0.62730   1.000
    H601    H    0.27780   0.46080   0.60100   1.000
    H602    H    0.25820   0.43170   0.64240   1.000
    Zn49    Zn   0.30120   0.18810   0.22250   1.000
    Zn50    Zn   0.37130   0.20710   0.29440   1.000
    O153    O    0.18800   0.36500   0.65100   1.000
    O154    O    0.30500   0.23100   0.26500   1.000
    O155    O    0.21000   0.32200   0.66200   1.000
    O156    O    0.35800   0.24800   0.31300   1.000
    C615    C    0.33200   0.28800   0.37400   1.000
    C616    C    0.23100   0.38600   0.52500   1.000
    H603    H    0.22040   0.39790   0.50540   1.000
    C617    C    0.32500   0.31700   0.39700   1.000
    H604    H    0.33070   0.32120   0.42720   1.000
    C618    C    0.27700   0.36100   0.54200   1.000
    H605    H    0.29760   0.35530   0.53280   1.000
    C619    C    0.26200   0.35200   0.58500   1.000
    C620    C    0.30600   0.30200   0.30500   1.000
    C621    C    0.21500   0.37700   0.56800   1.000
    C622    C    0.29900   0.33100   0.32900   1.000
    H606    H    0.28750   0.34540   0.31470   1.000
    C623    C    0.31500   0.50500   0.40100   1.000
    H607    H    0.31910   0.50630   0.43140   1.000
    C624    C    0.31100   0.50900   0.31300   1.000
    C625    C    0.30300   0.47600   0.33400   1.000
    H608    H    0.29530   0.45230   0.31600   1.000
    C626    C    0.31700   0.53600   0.38000   1.000
    O157    O    0.36200   0.60600   0.30600   1.000
    O158    O    0.28800   0.57800   0.30900   1.000
    O159    O    0.25000   0.15600   0.22500   1.000
    O160    O    0.43000   0.23600   0.27700   1.000
    C627    C    0.51100   0.28300   0.27100   1.000
    C628    C    0.49600   0.30200   0.30500   1.000
    H609    H    0.47820   0.28180   0.32630   1.000
    H610    H    0.51940   0.32450   0.32040   1.000
    H611    H    0.48070   0.31360   0.29030   1.000
    C629    C    0.11100   0.08000   0.22300   1.000
    H612    H    0.09680   0.08970   0.20580   1.000
    C630    C    0.55500   0.30400   0.27100   1.000
    H613    H    0.56990   0.32930   0.28670   1.000
    C631    C    0.15500   0.10200   0.22300   1.000
    C632    C    0.28000   0.33200   0.61000   1.000
    H614    H    0.31170   0.35150   0.61300   1.000
    H615    H    0.27070   0.32550   0.64050   1.000
    H616    H    0.27770   0.30740   0.59630   1.000
    C633    C    0.29500   0.30000   0.25600   1.000
    H617    H    0.26660   0.28870   0.25220   1.000
    H618    H    0.31320   0.31970   0.23980   1.000
    H619    H    0.29780   0.27210   0.24590   1.000
    C634    C    0.30000   0.50000   0.26000   1.000
    H620    H    0.27590   0.47530   0.25500   1.000
    H621    H    0.31040   0.52070   0.24240   1.000
    H622    H    0.32260   0.48650   0.25160   1.000
    C635    C    0.18200   0.39000   0.57000   1.000
    H623    H    0.15540   0.36540   0.57480   1.000
    H624    H    0.18820   0.40860   0.59480   1.000
    H625    H    0.18210   0.40310   0.54300   1.000
    C636    C    0.35100   0.26600   0.39800   1.000
    H626    H    0.33230   0.24950   0.42190   1.000
    H627    H    0.35380   0.24740   0.37770   1.000
    H628    H    0.37720   0.28540   0.41010   1.000
    C637    C    0.16000   0.13800   0.18900   1.000
    H629    H    0.18630   0.14070   0.16910   1.000
    H630    H    0.14020   0.13130   0.17260   1.000
    H631    H    0.17420   0.16360   0.20500   1.000
    C638    C    0.39000   0.55000   0.29900   1.000
    H632    H    0.38320   0.54690   0.26830   1.000
    H633    H    0.40680   0.57900   0.30650   1.000
    H634    H    0.40520   0.53600   0.30620   1.000
    C639    C    0.18400   0.28200   0.57200   1.000
    H635    H    0.16490   0.27890   0.59600   1.000
    H636    H    0.16820   0.27070   0.54540   1.000
    H637    H    0.19720   0.26620   0.58010   1.000
    C640    C    0.38500   0.34100   0.28900   1.000
    H638    H    0.39070   0.31970   0.28030   1.000
    H639    H    0.37780   0.35150   0.26310   1.000
    H640    H    0.40910   0.36360   0.30280   1.000
    Zn51    Zn   0.85850   0.63410   0.23880   1.000
    Zn52    Zn   0.86070   0.70370   0.30180   1.000
    Zn53    Zn   0.28070   0.65840   0.21980   1.000
    O161    O    0.90600   0.64600   0.27500   1.000
    O162    O    0.12900   0.76100   0.67700   1.000
    O163    O    0.24900   0.65800   0.27200   1.000
    O164    O    0.90500   0.69300   0.32100   1.000
    C641    C    0.95900   0.67800   0.32900   1.000
    C642    C    0.97500   0.65100   0.32200   1.000
    C643    C    0.01030   0.65800   0.34500   1.000
    H641    H    0.02090   0.64020   0.33990   1.000
    C644    C    0.03000   0.69100   0.37400   1.000
    C645    C    0.01300   0.71700   0.38100   1.000
    H642    H    0.02630   0.73900   0.40150   1.000
    C646    C    0.97760   0.71000   0.35900   1.000
    C647    C    0.25600   0.67400   0.31200   1.000
    O165    O    0.14200   0.82500   0.64900   1.000
    C648    C    0.06800   0.69900   0.39900   1.000
    C649    C    0.09700   0.69200   0.37820   1.000
    H643    H    0.09390   0.68270   0.34910   1.000
    C650    C    0.13300   0.70000   0.40100   1.000
    C651    C    0.14000   0.71500   0.44500   1.000
    H644    H    0.16320   0.71980   0.46050   1.000
    C652    C    0.11000   0.72200   0.46530   1.000
    C653    C    0.07400   0.71400   0.44200   1.000
    H645    H    0.05430   0.71860   0.45580   1.000
    C654    C    0.12900   0.77000   0.59800   1.000
    C655    C    0.14100   0.74100   0.58700   1.000
    C656    C    0.13400   0.72500   0.54400   1.000
    H646    H    0.14180   0.70510   0.53660   1.000
    C657    C    0.11600   0.73800   0.51200   1.000
    C658    C    0.10600   0.76800   0.52300   1.000
    H647    H    0.09330   0.77660   0.50160   1.000
    C659    C    0.11100   0.78300   0.56600   1.000
    C660    C    0.77900   0.55700   0.25000   1.000
    C661    C    0.92100   0.67300   0.30300   1.000
    C662    C    0.13700   0.78800   0.64500   1.000
    C663    C    0.16500   0.69400   0.37800   1.000
    C664    C    0.15300   0.66000   0.35000   1.000
    H648    H    0.12470   0.64160   0.34420   1.000
    C665    C    0.18200   0.65300   0.32900   1.000
    C666    C    0.22500   0.68100   0.33700   1.000
    C667    C    0.23600   0.71400   0.36600   1.000
    C668    C    0.20700   0.72100   0.38600   1.000
    H649    H    0.21490   0.74340   0.40510   1.000
    O166    O    0.28800   0.67300   0.33100   1.000
    C669    C    0.88600   0.77300   0.25000   1.000
    C670    C    0.28200   0.75300   0.38300   1.000
    H650    H    0.29190   0.74400   0.40760   1.000
    H651    H    0.30220   0.76110   0.35880   1.000
    H652    H    0.27930   0.77630   0.39120   1.000
    O167    O    0.88900   0.76100   0.28800   1.000
    O168    O    0.81700   0.57500   0.25000   1.000
    C671    C    0.94800   0.84500   0.27600   1.000
    C672    C    0.74900   0.44500   0.22900   1.000
    H653    H    0.76060   0.43110   0.21410   1.000
    C673    C    0.97000   0.88900   0.27600   1.000
    H654    H    0.99410   0.90360   0.29240   1.000
    C674    C    0.97100   0.83000   0.30700   1.000
    H655    H    0.99740   0.85110   0.31290   1.000
    H656    H    0.95440   0.81940   0.33410   1.000
    H657    H    0.97080   0.80650   0.29240   1.000
    C675    C    0.77100   0.48800   0.22900   1.000
    C676    C    0.80800   0.50000   0.20300   1.000
    H658    H    0.83340   0.52460   0.21870   1.000
    H659    H    0.81580   0.47950   0.19980   1.000
    H660    H    0.80800   0.51170   0.17410   1.000
    C677    C    0.96700   0.74200   0.37500   1.000
    H661    H    0.95840   0.73620   0.40560   1.000
    H662    H    0.99130   0.76940   0.37320   1.000
    H663    H    0.94520   0.74100   0.35740   1.000
    C678    C    0.16200   0.72400   0.61700   1.000
    H664    H    0.14130   0.69640   0.62730   1.000
    H665    H    0.18300   0.72220   0.60100   1.000
    H666    H    0.17350   0.74180   0.64240   1.000
    Zn54    Zn   0.88690   0.69880   0.22250   1.000
    Zn55    Zn   0.83580   0.62870   0.29440   1.000
    O169    O    0.17700   0.81200   0.65100   1.000
    O170    O    0.92600   0.69500   0.26500   1.000
    O171    O    0.11200   0.79000   0.66200   1.000
    O172    O    0.89000   0.64200   0.31300   1.000
    C679    C    0.95600   0.66800   0.37400   1.000
    C680    C    0.15500   0.76900   0.52500   1.000
    H667    H    0.17750   0.77960   0.50540   1.000
    C681    C    0.99200   0.67500   0.39700   1.000
    H668    H    0.99050   0.66930   0.42720   1.000
    C682    C    0.08400   0.72300   0.54200   1.000
    H669    H    0.05770   0.70240   0.53280   1.000
    C683    C    0.09000   0.73800   0.58500   1.000
    C684    C    0.99600   0.69400   0.30500   1.000
    C685    C    0.16200   0.78500   0.56800   1.000
    C686    C    0.03200   0.70100   0.32900   1.000
    H670    H    0.05790   0.71250   0.31470   1.000
    C687    C    0.19000   0.68500   0.40100   1.000
    H671    H    0.18720   0.68090   0.43140   1.000
    C688    C    0.19800   0.68900   0.31300   1.000
    C689    C    0.17300   0.69700   0.33400   1.000
    H672    H    0.15700   0.70470   0.31600   1.000
    C690    C    0.21900   0.68300   0.38000   1.000
    O173    O    0.24400   0.63800   0.30600   1.000
    O174    O    0.29000   0.71200   0.30900   1.000
    O175    O    0.90600   0.75000   0.22500   1.000
    O176    O    0.80600   0.57000   0.27700   1.000
    C691    C    0.77200   0.48900   0.27100   1.000
    C692    C    0.80600   0.50400   0.30500   1.000
    H673    H    0.80360   0.52180   0.32630   1.000
    H674    H    0.80510   0.48060   0.32040   1.000
    H675    H    0.83290   0.51930   0.29030   1.000
    C693    C    0.96900   0.88900   0.22300   1.000
    H676    H    0.99290   0.90320   0.20580   1.000
    C694    C    0.74900   0.44500   0.27100   1.000
    H677    H    0.75940   0.43010   0.28670   1.000
    C695    C    0.94700   0.84500   0.22300   1.000
    C696    C    0.05200   0.72000   0.61000   1.000
    H678    H    0.03980   0.68830   0.61300   1.000
    H679    H    0.05480   0.72930   0.64050   1.000
    H680    H    0.02970   0.72230   0.59630   1.000
    C697    C    0.00500   0.70500   0.25600   1.000
    H681    H    0.02210   0.73340   0.25220   1.000
    H682    H    0.00650   0.68680   0.23980   1.000
    H683    H    0.97430   0.70220   0.24590   1.000
    C698    C    0.20000   0.70000   0.26000   1.000
    H684    H    0.19940   0.72410   0.25500   1.000
    H685    H    0.21030   0.68960   0.24240   1.000
    H686    H    0.16390   0.67740   0.25160   1.000
    C699    C    0.20800   0.81800   0.57000   1.000
    H687    H    0.21000   0.84460   0.57480   1.000
    H688    H    0.22040   0.81180   0.59480   1.000
    H689    H    0.22100   0.81790   0.54300   1.000
    C700    C    0.91500   0.64900   0.39800   1.000
    H690    H    0.91720   0.66770   0.42190   1.000
    H691    H    0.89360   0.64620   0.37770   1.000
    H692    H    0.90820   0.62280   0.41010   1.000
    C701    C    0.97800   0.84000   0.18900   1.000
    H693    H    0.95440   0.81370   0.16910   1.000
    H694    H    0.99110   0.85980   0.17260   1.000
    H695    H    0.98940   0.82580   0.20500   1.000
    C702    C    0.16000   0.61000   0.29900   1.000
    H696    H    0.16370   0.61680   0.26830   1.000
    H697    H    0.17220   0.59320   0.30650   1.000
    H698    H    0.13080   0.59480   0.30620   1.000
    C703    C    0.09800   0.81600   0.57200   1.000
    H699    H    0.11400   0.83510   0.59600   1.000
    H700    H    0.10250   0.83180   0.54540   1.000
    H701    H    0.06900   0.80280   0.58010   1.000
    C704    C    0.95600   0.61500   0.28900   1.000
    H702    H    0.92900   0.60930   0.28030   1.000
    H703    H    0.97370   0.62220   0.26310   1.000
    H704    H    0.95450   0.59090   0.30280   1.000
    Zn56    Zn   0.77560   0.14150   0.23880   1.000
    Zn57    Zn   0.84300   0.13930   0.30180   1.000
    Zn58    Zn   0.37770   0.71930   0.21980   1.000
    O177    O    0.74000   0.09400   0.27500   1.000
    O178    O    0.63200   0.87100   0.67700   1.000
    O179    O    0.40900   0.75100   0.27200   1.000
    O180    O    0.78800   0.09500   0.32100   1.000
    C705    C    0.71900   0.04100   0.32900   1.000
    C706    C    0.67600   0.02500   0.32200   1.000
    C707    C    0.64770   0.98970   0.34500   1.000
    H705    H    0.61930   0.97910   0.33990   1.000
    C708    C    0.66100   0.97000   0.37400   1.000
    C709    C    0.70400   0.98700   0.38100   1.000
    H706    H    0.71270   0.97370   0.40150   1.000
    C710    C    0.73240   0.02240   0.35900   1.000
    C711    C    0.41800   0.74400   0.31200   1.000
    O181    O    0.68300   0.85800   0.64900   1.000
    C712    C    0.63100   0.93200   0.39900   1.000
    C713    C    0.59500   0.90300   0.37820   1.000
    H707    H    0.58880   0.90610   0.34910   1.000
    C714    C    0.56700   0.86700   0.40100   1.000
    C715    C    0.57500   0.86000   0.44500   1.000
    H708    H    0.55660   0.83680   0.46050   1.000
    C716    C    0.61200   0.89000   0.46530   1.000
    C717    C    0.64000   0.92600   0.44200   1.000
    H709    H    0.66430   0.94570   0.45580   1.000
    C718    C    0.64100   0.87100   0.59800   1.000
    C719    C    0.60000   0.85900   0.58700   1.000
    C720    C    0.59100   0.86600   0.54400   1.000
    H710    H    0.56330   0.85820   0.53660   1.000
    C721    C    0.62200   0.88400   0.51200   1.000
    C722    C    0.66200   0.89400   0.52300   1.000
    H711    H    0.68330   0.90670   0.50160   1.000
    C723    C    0.67200   0.88900   0.56600   1.000
    C724    C    0.77800   0.22100   0.25000   1.000
    C725    C    0.75200   0.07900   0.30300   1.000
    C726    C    0.65100   0.86300   0.64500   1.000
    C727    C    0.52900   0.83500   0.37800   1.000
    C728    C    0.50700   0.84700   0.35000   1.000
    H712    H    0.51690   0.87530   0.34420   1.000
    C729    C    0.47100   0.81800   0.32900   1.000
    C730    C    0.45600   0.77500   0.33700   1.000
    C731    C    0.47800   0.76400   0.36600   1.000
    C732    C    0.51400   0.79300   0.38600   1.000
    H713    H    0.52850   0.78510   0.40510   1.000
    O182    O    0.38500   0.71200   0.33100   1.000
    C733    C    0.88700   0.11400   0.25000   1.000
    C734    C    0.47100   0.71800   0.38300   1.000
    H714    H    0.45210   0.70810   0.40760   1.000
    H715    H    0.45890   0.69780   0.35880   1.000
    H716    H    0.49700   0.72070   0.39120   1.000
    O183    O    0.87200   0.11100   0.28800   1.000
    O184    O    0.75800   0.18300   0.25000   1.000
    C735    C    0.89700   0.05200   0.27600   1.000
    C736    C    0.69600   0.25100   0.22900   1.000
    H717    H    0.67050   0.23940   0.21410   1.000
    C737    C    0.91900   0.03000   0.27600   1.000
    H718    H    0.90950   0.00590   0.29240   1.000
    C738    C    0.85900   0.02900   0.30700   1.000
    H719    H    0.85370   0.00260   0.31290   1.000
    H720    H    0.86500   0.04560   0.33410   1.000
    H721    H    0.83570   0.02920   0.29240   1.000
    C739    C    0.71700   0.22900   0.22900   1.000
    C740    C    0.69200   0.19200   0.20300   1.000
    H722    H    0.69120   0.16660   0.21870   1.000
    H723    H    0.66370   0.18420   0.19980   1.000
    H724    H    0.70370   0.19200   0.17410   1.000
    C741    C    0.77500   0.03300   0.37500   1.000
    H725    H    0.77780   0.04160   0.40560   1.000
    H726    H    0.77810   0.00870   0.37320   1.000
    H727    H    0.79580   0.05480   0.35740   1.000
    C742    C    0.56200   0.83800   0.61700   1.000
    H728    H    0.55510   0.85870   0.62730   1.000
    H729    H    0.53920   0.81700   0.60100   1.000
    H730    H    0.56830   0.82650   0.64240   1.000
    Zn59    Zn   0.81190   0.11310   0.22250   1.000
    Zn60    Zn   0.79290   0.16420   0.29440   1.000
    O185    O    0.63500   0.82300   0.65100   1.000
    O186    O    0.76900   0.07400   0.26500   1.000
    O187    O    0.67800   0.88800   0.66200   1.000
    O188    O    0.75200   0.11000   0.31300   1.000
    C743    C    0.71200   0.04400   0.37400   1.000
    C744    C    0.61400   0.84500   0.52500   1.000
    H731    H    0.60210   0.82250   0.50540   1.000
    C745    C    0.68300   0.00800   0.39700   1.000
    H732    H    0.67880   0.00950   0.42720   1.000
    C746    C    0.63900   0.91600   0.54200   1.000
    H733    H    0.64470   0.94230   0.53280   1.000
    C747    C    0.64800   0.91000   0.58500   1.000
    C748    C    0.69800   0.00400   0.30500   1.000
    C749    C    0.62300   0.83800   0.56800   1.000
    C750    C    0.66900   0.96800   0.32900   1.000
    H734    H    0.65460   0.94210   0.31470   1.000
    C751    C    0.49500   0.81000   0.40100   1.000
    H735    H    0.49370   0.81280   0.43140   1.000
    C752    C    0.49100   0.80200   0.31300   1.000
    C753    C    0.52400   0.82700   0.33400   1.000
    H736    H    0.54770   0.84300   0.31600   1.000
    C754    C    0.46400   0.78100   0.38000   1.000
    O189    O    0.39400   0.75600   0.30600   1.000
    O190    O    0.42200   0.71000   0.30900   1.000
    O191    O    0.84400   0.09400   0.22500   1.000
    O192    O    0.76400   0.19400   0.27700   1.000
    C755    C    0.71700   0.22800   0.27100   1.000
    C756    C    0.69800   0.19400   0.30500   1.000
    H737    H    0.71820   0.19640   0.32630   1.000
    H738    H    0.67550   0.19490   0.32040   1.000
    H739    H    0.68640   0.16710   0.29030   1.000
    C757    C    0.92000   0.03100   0.22300   1.000
    H740    H    0.91030   0.00710   0.20580   1.000
    C758    C    0.69600   0.25100   0.27100   1.000
    H741    H    0.67070   0.24060   0.28670   1.000
    C759    C    0.89800   0.05300   0.22300   1.000
    C760    C    0.66800   0.94800   0.61000   1.000
    H742    H    0.64850   0.96020   0.61300   1.000
    H743    H    0.67450   0.94520   0.64050   1.000
    H744    H    0.69260   0.97030   0.59630   1.000
    C761    C    0.70000   0.99500   0.25600   1.000
    H745    H    0.71130   0.97790   0.25220   1.000
    H746    H    0.68030   0.99350   0.23980   1.000
    H747    H    0.72790   0.02570   0.24590   1.000
    C762    C    0.50000   0.80000   0.26000   1.000
    H748    H    0.52470   0.80060   0.25500   1.000
    H749    H    0.47930   0.78970   0.24240   1.000
    H750    H    0.51350   0.83610   0.25160   1.000
    C763    C    0.61000   0.79200   0.57000   1.000
    H751    H    0.63460   0.79000   0.57480   1.000
    H752    H    0.59140   0.77960   0.59480   1.000
    H753    H    0.59690   0.77900   0.54300   1.000
    C764    C    0.73400   0.08500   0.39800   1.000
    H754    H    0.75050   0.08280   0.42190   1.000
    H755    H    0.75260   0.10640   0.37770   1.000
    H756    H    0.71460   0.09180   0.41010   1.000
    C765    C    0.86200   0.02200   0.18900   1.000
    H757    H    0.85930   0.04560   0.16910   1.000
    H758    H    0.86870   0.00890   0.17260   1.000
    H759    H    0.83640   0.01060   0.20500   1.000
    C766    C    0.45000   0.84000   0.29900   1.000
    H760    H    0.45310   0.83630   0.26830   1.000
    H761    H    0.42100   0.82780   0.30650   1.000
    H762    H    0.46400   0.86920   0.30620   1.000
    C767    C    0.71800   0.90200   0.57200   1.000
    H763    H    0.72110   0.88600   0.59600   1.000
    H764    H    0.72930   0.89750   0.54540   1.000
    H765    H    0.73380   0.93100   0.58010   1.000
    C768    C    0.65900   0.04400   0.28900   1.000
    H766    H    0.68030   0.07100   0.28030   1.000
    H767    H    0.64850   0.02630   0.26310   1.000
    H768    H    0.63640   0.04550   0.30280   1.000
    Zn61    Zn   0.66667   0.33333   0.80670   1.000
    Zn62    Zn   0.66667   0.33333   0.69330   1.000
    Zn63    Zn   0.33333   0.66667   0.19330   1.000
    Zn64    Zn   0.33333   0.66667   0.30670   1.000
    O193    O    0.16650   0.33300   0.75000   1.000
    C769    C    0.24500   0.49000   0.75000   1.000
    C770    C    0.31200   0.62400   0.75000   1.000
    C771    C    0.28800   0.57600   0.75000   1.000
    C772    C    0.04450   0.08900   0.75000   1.000
    C773    C    0.02200   0.04400   0.75000   1.000
    C774    C    0.08850   0.17700   0.75000   1.000
    O194    O    0.66700   0.83350   0.75000   1.000
    C775    C    0.51000   0.75500   0.75000   1.000
    C776    C    0.37600   0.68800   0.75000   1.000
    C777    C    0.42400   0.71200   0.75000   1.000
    C778    C    0.91100   0.95550   0.75000   1.000
    C779    C    0.95600   0.97800   0.75000   1.000
    C780    C    0.82300   0.91150   0.75000   1.000
    O195    O    0.16650   0.83350   0.75000   1.000
    C781    C    0.24500   0.75500   0.75000   1.000
    C782    C    0.31200   0.68800   0.75000   1.000
    C783    C    0.28800   0.71200   0.75000   1.000
    C784    C    0.04450   0.95550   0.75000   1.000
    C785    C    0.02200   0.97800   0.75000   1.000
    C786    C    0.08850   0.91150   0.75000   1.000
    O196    O    0.83350   0.66700   0.25000   1.000
    C787    C    0.75500   0.51000   0.25000   1.000
    C788    C    0.68800   0.37600   0.25000   1.000
    C789    C    0.71200   0.42400   0.25000   1.000
    C790    C    0.95550   0.91100   0.25000   1.000
    C791    C    0.97800   0.95600   0.25000   1.000
    C792    C    0.91150   0.82300   0.25000   1.000
    O197    O    0.33300   0.16650   0.25000   1.000
    C793    C    0.49000   0.24500   0.25000   1.000
    C794    C    0.62400   0.31200   0.25000   1.000
    C795    C    0.57600   0.28800   0.25000   1.000
    C796    C    0.08900   0.04450   0.25000   1.000
    C797    C    0.04400   0.02200   0.25000   1.000
    C798    C    0.17700   0.08850   0.25000   1.000
    O198    O    0.83350   0.16650   0.25000   1.000
    C799    C    0.75500   0.24500   0.25000   1.000
    C800    C    0.68800   0.31200   0.25000   1.000
    C801    C    0.71200   0.28800   0.25000   1.000
    C802    C    0.95550   0.04450   0.25000   1.000
    C803    C    0.97800   0.02200   0.25000   1.000
    C804    C    0.91150   0.08850   0.25000   1.000
    O199    O    0.66667   0.33333   0.75000   1.000
    O200    O    0.33333   0.66667   0.25000   1.000
    C805    C    0.35520   0.64480   0.75000   1.000
    H769    H    0.36960   0.63040   0.75000   1.000
    C806    C    0.35520   0.71040   0.75000   1.000
    H770    H    0.36960   0.73920   0.75000   1.000
    C807    C    0.28960   0.64480   0.75000   1.000
    H771    H    0.26080   0.63040   0.75000   1.000
    C808    C    0.64480   0.35520   0.25000   1.000
    H772    H    0.63040   0.36960   0.25000   1.000
    C809    C    0.64480   0.28960   0.25000   1.000
    H773    H    0.63040   0.26080   0.25000   1.000
    C810    C    0.71040   0.35520   0.25000   1.000
    H774    H    0.73920   0.36960   0.25000   1.000
    C811    C    0.04800   0.02400   0.75000   1.000
    H775    H    0.07740   0.03870   0.75000   1.000
    C812    C    0.97600   0.02400   0.75000   1.000
    H776    H    0.96130   0.03870   0.75000   1.000
    C813    C    0.97600   0.95200   0.75000   1.000
    H777    H    0.96130   0.92260   0.75000   1.000
    C814    C    0.95200   0.97600   0.25000   1.000
    H778    H    0.92260   0.96130   0.25000   1.000
    C815    C    0.02400   0.97600   0.25000   1.000
    H779    H    0.03870   0.96130   0.25000   1.000
    C816    C    0.02400   0.04800   0.25000   1.000
    H780    H    0.03870   0.07740   0.25000   1.000
