data_functionalizedCrystal
_audit_creation_method	'EQeq! by Chris Wilmer'
_symmetry_space_group_name_H-M	'P1'
_symmetry_Int_Tables_number	1
_symmetry_cell_setting	triclinic
loop_
_symmetry_equiv_pos_as_xyz
  x,y,z
_cell_length_a	13.6907
_cell_length_b	22.2234
_cell_length_c	22.1776
_cell_angle_alpha	90
_cell_angle_beta	90
_cell_angle_gamma	90
loop_
_atom_site_label
_atom_site_type_symbol
_atom_site_fract_x
_atom_site_fract_y
_atom_site_fract_z
_atom_site_charge
Mof_N 	N 	0.2418	0.49353	0.3413	-0.242
Mof_C 	C 	0.317	0.309	0.2164	-0.137
Mof_H 	H 	0.3633	0.2894	0.1928	0.074
Mof_C 	C 	0.3146	0.371	0.218	0.072
Mof_H 	H 	0.3607	0.392	0.1956	-0.019
Mof_C 	C 	0.2375	0.4984	0.4657	0.063
Mof_C 	C 	0.1656	0.525	0.4327	-0.144
Mof_H 	H 	0.1142	0.5448	0.4516	0.083
Mof_C 	C 	0.3115	0.4687	0.4361	-0.144
Mof_H 	H 	0.3618	0.4507	0.4577	0.078
Mof_C 	C 	0.3151	0.1763	0.2163	-0.15
Mof_H 	H 	0.3611	0.1962	0.1927	0.082
Mof_C 	C 	0.3103	0.4661	0.3732	0.084
Mof_H 	H 	0.3587	0.4445	0.3533	-0.028
Mof_C 	C 	0.1707	0.5219	0.3703	0.084
Mof_H 	H 	0.122	0.5406	0.3478	-0.015
Mof_C 	C 	0.313	0.1147	0.2168	0.09
Mof_H 	H 	0.3575	0.0938	0.193	-0.024
Mof_N 	N 	0.2582	0.50647	0.8413	-0.243
Mof_C 	C 	0.183	0.691	0.7164	-0.137
Mof_H 	H 	0.1367	0.7106	0.6928	0.075
Mof_C 	C 	0.1854	0.629	0.718	0.071
Mof_H 	H 	0.1393	0.608	0.6956	-0.018
Mof_C 	C 	0.2625	0.5016	0.9657	0.062
Mof_C 	C 	0.3344	0.475	0.9327	-0.145
Mof_H 	H 	0.3858	0.4552	0.9516	0.08
Mof_C 	C 	0.1885	0.5313	0.9361	-0.145
Mof_H 	H 	0.1382	0.5493	0.9577	0.079
Mof_C 	C 	0.1849	0.8237	0.7163	-0.15
Mof_H 	H 	0.1389	0.8038	0.6927	0.083
Mof_C 	C 	0.1897	0.5339	0.8732	0.084
Mof_H 	H 	0.1413	0.5555	0.8533	-0.028
Mof_C 	C 	0.3293	0.4781	0.8703	0.083
Mof_H 	H 	0.378	0.4594	0.8478	-0.016
Mof_C 	C 	0.187	0.8853	0.7168	0.09
Mof_H 	H 	0.1425	0.9062	0.693	-0.023
Mof_N 	N 	0.2582	0.49353	0.1587	-0.243
Mof_C 	C 	0.183	0.309	0.2836	-0.137
Mof_H 	H 	0.1367	0.2894	0.3072	0.075
Mof_C 	C 	0.1854	0.371	0.282	0.071
Mof_H 	H 	0.1393	0.392	0.3044	-0.018
Mof_C 	C 	0.2625	0.4984	0.0343	0.062
Mof_C 	C 	0.3344	0.525	0.0673	-0.145
Mof_H 	H 	0.3858	0.5448	0.0484	0.08
Mof_C 	C 	0.1885	0.4687	0.0639	-0.145
Mof_H 	H 	0.1382	0.4507	0.0423	0.079
Mof_C 	C 	0.1849	0.1763	0.2837	-0.15
Mof_H 	H 	0.1389	0.1962	0.3073	0.083
Mof_C 	C 	0.1897	0.4661	0.1268	0.084
Mof_H 	H 	0.1413	0.4445	0.1467	-0.028
Mof_C 	C 	0.3293	0.5219	0.1297	0.083
Mof_H 	H 	0.378	0.5406	0.1522	-0.016
Mof_C 	C 	0.187	0.1147	0.2832	0.09
Mof_H 	H 	0.1425	0.0938	0.307	-0.023
Mof_N 	N 	0.2418	0.50647	0.6587	-0.243
Mof_C 	C 	0.317	0.691	0.7836	-0.138
Mof_H 	H 	0.3633	0.7106	0.8072	0.073
Mof_C 	C 	0.3146	0.629	0.782	0.071
Mof_H 	H 	0.3607	0.608	0.8044	-0.02
Mof_C 	C 	0.2375	0.5016	0.5343	0.062
Mof_C 	C 	0.1656	0.475	0.5673	-0.145
Mof_H 	H 	0.1142	0.4552	0.5484	0.082
Mof_C 	C 	0.3115	0.5313	0.5639	-0.145
Mof_H 	H 	0.3618	0.5493	0.5423	0.077
Mof_C 	C 	0.3151	0.8237	0.7837	-0.151
Mof_H 	H 	0.3611	0.8038	0.8073	0.081
Mof_C 	C 	0.3103	0.5339	0.6268	0.083
Mof_H 	H 	0.3587	0.5555	0.6467	-0.029
Mof_C 	C 	0.1707	0.4781	0.6297	0.084
Mof_H 	H 	0.122	0.4594	0.6522	-0.015
Mof_C 	C 	0.313	0.8853	0.7832	0.09
Mof_H 	H 	0.3575	0.9062	0.807	-0.024
Mof_N 	N 	0.2582	0.00647	0.6587	-0.243
Mof_C 	C 	0.183	0.191	0.7836	-0.137
Mof_H 	H 	0.1367	0.2106	0.8072	0.075
Mof_C 	C 	0.1854	0.129	0.782	0.071
Mof_H 	H 	0.1393	0.108	0.8044	-0.018
Mof_C 	C 	0.2625	0.0016	0.5343	0.062
Mof_C 	C 	0.3344	0.975	0.5673	-0.145
Mof_H 	H 	0.3858	0.9552	0.5484	0.08
Mof_C 	C 	0.1885	0.0313	0.5639	-0.145
Mof_H 	H 	0.1382	0.0493	0.5423	0.079
Mof_C 	C 	0.1849	0.3237	0.7837	-0.15
Mof_H 	H 	0.1389	0.3038	0.8073	0.083
Mof_C 	C 	0.1897	0.0339	0.6268	0.084
Mof_H 	H 	0.1413	0.0555	0.6467	-0.028
Mof_C 	C 	0.3293	0.9781	0.6297	0.083
Mof_H 	H 	0.378	0.9594	0.6522	-0.016
Mof_C 	C 	0.187	0.3853	0.7832	0.09
Mof_H 	H 	0.1425	0.4062	0.807	-0.023
Mof_N 	N 	0.2418	0.99353	0.1587	-0.243
Mof_C 	C 	0.317	0.809	0.2836	-0.138
Mof_H 	H 	0.3633	0.7894	0.3072	0.073
Mof_C 	C 	0.3146	0.871	0.282	0.071
Mof_H 	H 	0.3607	0.892	0.3044	-0.02
Mof_C 	C 	0.2375	0.9984	0.0343	0.062
Mof_C 	C 	0.1656	0.025	0.0673	-0.144
Mof_H 	H 	0.1142	0.0448	0.0484	0.082
Mof_C 	C 	0.3115	0.9687	0.0639	-0.145
Mof_H 	H 	0.3618	0.9507	0.0423	0.077
Mof_C 	C 	0.3151	0.6763	0.2837	-0.151
Mof_H 	H 	0.3611	0.6962	0.3073	0.081
Mof_C 	C 	0.3103	0.9661	0.1268	0.083
Mof_H 	H 	0.3587	0.9445	0.1467	-0.029
Mof_C 	C 	0.1707	0.0219	0.1297	0.084
Mof_H 	H 	0.122	0.0406	0.1522	-0.015
Mof_C 	C 	0.313	0.6147	0.2832	0.09
Mof_H 	H 	0.3575	0.5938	0.307	-0.024
Mof_N 	N 	0.2418	0.00647	0.8413	-0.243
Mof_C 	C 	0.317	0.191	0.7164	-0.138
Mof_H 	H 	0.3633	0.2106	0.6928	0.073
Mof_C 	C 	0.3146	0.129	0.718	0.071
Mof_H 	H 	0.3607	0.108	0.6956	-0.02
Mof_C 	C 	0.2375	0.0016	0.9657	0.062
Mof_C 	C 	0.1656	0.975	0.9327	-0.144
Mof_H 	H 	0.1142	0.9552	0.9516	0.082
Mof_C 	C 	0.3115	0.0313	0.9361	-0.145
Mof_H 	H 	0.3618	0.0493	0.9577	0.077
Mof_C 	C 	0.3151	0.3237	0.7163	-0.151
Mof_H 	H 	0.3611	0.3038	0.6927	0.081
Mof_C 	C 	0.3103	0.0339	0.8732	0.083
Mof_H 	H 	0.3587	0.0555	0.8533	-0.029
Mof_C 	C 	0.1707	0.9781	0.8703	0.084
Mof_H 	H 	0.122	0.9594	0.8478	-0.015
Mof_C 	C 	0.313	0.3853	0.7168	0.09
Mof_H 	H 	0.3575	0.4062	0.693	-0.024
Mof_N 	N 	0.2582	0.99353	0.3413	-0.243
Mof_C 	C 	0.183	0.809	0.2164	-0.137
Mof_H 	H 	0.1367	0.7894	0.1928	0.075
Mof_C 	C 	0.1854	0.871	0.218	0.071
Mof_H 	H 	0.1393	0.892	0.1956	-0.018
Mof_C 	C 	0.2625	0.9984	0.4657	0.062
Mof_C 	C 	0.3344	0.025	0.4327	-0.145
Mof_H 	H 	0.3858	0.0448	0.4516	0.08
Mof_C 	C 	0.1885	0.9687	0.4361	-0.145
Mof_H 	H 	0.1382	0.9507	0.4577	0.079
Mof_C 	C 	0.1849	0.6763	0.2163	-0.15
Mof_H 	H 	0.1389	0.6962	0.1927	0.083
Mof_C 	C 	0.1897	0.9661	0.3732	0.084
Mof_H 	H 	0.1413	0.9445	0.3533	-0.028
Mof_C 	C 	0.3293	0.0219	0.3703	0.083
Mof_H 	H 	0.378	0.0406	0.3478	-0.016
Mof_C 	C 	0.187	0.6147	0.2168	0.09
Mof_H 	H 	0.1425	0.5938	0.193	-0.023
Mof_Cu	Cu	0.25	0.49254	0.25	0.85
Mof_N 	N 	0.25	0.4025	0.25	-0.245
Mof_C 	C 	0.25	0.2752	0.25	0.046
Mof_C 	C 	0.25	0.2089	0.25	0.077
Mof_N 	N 	0.25	0.0834	0.25	-0.246
Mof_Cu	Cu	0.25	0.50746	0.75	0.85
Mof_N 	N 	0.25	0.5975	0.75	-0.245
Mof_C 	C 	0.25	0.7248	0.75	0.046
Mof_C 	C 	0.25	0.7911	0.75	0.077
Mof_N 	N 	0.25	0.9166	0.75	-0.246
Mof_Cu	Cu	0.25	0.99254	0.25	0.85
Mof_N 	N 	0.25	0.9025	0.25	-0.245
Mof_C 	C 	0.25	0.7752	0.25	0.046
Mof_C 	C 	0.25	0.7089	0.25	0.077
Mof_N 	N 	0.25	0.5834	0.25	-0.247
Mof_Cu	Cu	0.25	0.00746	0.75	0.85
Mof_N 	N 	0.25	0.0975	0.75	-0.245
Mof_C 	C 	0.25	0.2248	0.75	0.046
Mof_C 	C 	0.25	0.2911	0.75	0.077
Mof_N 	N 	0.25	0.4166	0.75	-0.247
Mof_N 	N 	0.7418	0.99353	0.3413	-0.244
Mof_C 	C 	0.817	0.809	0.2164	-0.138
Mof_H 	H 	0.8633	0.7894	0.1928	0.071
Mof_C 	C 	0.8146	0.871	0.218	0.07
Mof_H 	H 	0.8607	0.892	0.1956	-0.022
Mof_C 	C 	0.7375	0.9984	0.4657	0.061
Mof_C 	C 	0.6656	0.025	0.4327	-0.144
Mof_H 	H 	0.6142	0.0448	0.4516	0.08
Mof_C 	C 	0.8115	0.9687	0.4361	-0.145
Mof_H 	H 	0.8618	0.9507	0.4577	0.075
Mof_C 	C 	0.8151	0.6763	0.2163	-0.151
Mof_H 	H 	0.8611	0.6962	0.1927	0.079
Mof_C 	C 	0.8103	0.9661	0.3732	0.082
Mof_H 	H 	0.8587	0.9445	0.3533	-0.031
Mof_C 	C 	0.6707	0.0219	0.3703	0.083
Mof_H 	H 	0.622	0.0406	0.3478	-0.015
Mof_C 	C 	0.813	0.6147	0.2168	0.089
Mof_H 	H 	0.8575	0.5938	0.193	-0.026
Mof_N 	N 	0.7582	0.00647	0.8413	-0.244
Mof_C 	C 	0.683	0.191	0.7164	-0.137
Mof_H 	H 	0.6367	0.2106	0.6928	0.073
Mof_C 	C 	0.6854	0.129	0.718	0.071
Mof_H 	H 	0.6393	0.108	0.6956	-0.02
Mof_C 	C 	0.7625	0.0016	0.9657	0.061
Mof_C 	C 	0.8344	0.975	0.9327	-0.145
Mof_H 	H 	0.8858	0.9552	0.9516	0.077
Mof_C 	C 	0.6885	0.0313	0.9361	-0.145
Mof_H 	H 	0.6382	0.0493	0.9577	0.077
Mof_C 	C 	0.6849	0.3237	0.7163	-0.15
Mof_H 	H 	0.6389	0.3038	0.6927	0.081
Mof_C 	C 	0.6897	0.0339	0.8732	0.082
Mof_H 	H 	0.6413	0.0555	0.8533	-0.029
Mof_C 	C 	0.8293	0.9781	0.8703	0.082
Mof_H 	H 	0.878	0.9594	0.8478	-0.019
Mof_C 	C 	0.687	0.3853	0.7168	0.09
Mof_H 	H 	0.6425	0.4062	0.693	-0.024
Mof_N 	N 	0.7582	0.99353	0.1587	-0.244
Mof_C 	C 	0.683	0.809	0.2836	-0.137
Mof_H 	H 	0.6367	0.7894	0.3072	0.073
Mof_C 	C 	0.6854	0.871	0.282	0.071
Mof_H 	H 	0.6393	0.892	0.3044	-0.02
Mof_C 	C 	0.7625	0.9984	0.0343	0.061
Mof_C 	C 	0.8344	0.025	0.0673	-0.145
Mof_H 	H 	0.8858	0.0448	0.0484	0.077
Mof_C 	C 	0.6885	0.9687	0.0639	-0.145
Mof_H 	H 	0.6382	0.9507	0.0423	0.077
Mof_C 	C 	0.6849	0.6763	0.2837	-0.15
Mof_H 	H 	0.6389	0.6962	0.3073	0.081
Mof_C 	C 	0.6897	0.9661	0.1268	0.082
Mof_H 	H 	0.6413	0.9445	0.1467	-0.029
Mof_C 	C 	0.8293	0.0219	0.1297	0.082
Mof_H 	H 	0.878	0.0406	0.1522	-0.019
Mof_C 	C 	0.687	0.6147	0.2832	0.09
Mof_H 	H 	0.6425	0.5938	0.307	-0.024
Mof_N 	N 	0.7418	0.00647	0.6587	-0.244
Mof_C 	C 	0.817	0.191	0.7836	-0.138
Mof_H 	H 	0.8633	0.2106	0.8072	0.071
Mof_C 	C 	0.8146	0.129	0.782	0.07
Mof_H 	H 	0.8607	0.108	0.8044	-0.022
Mof_C 	C 	0.7375	0.0016	0.5343	0.061
Mof_C 	C 	0.6656	0.975	0.5673	-0.144
Mof_H 	H 	0.6142	0.9552	0.5484	0.08
Mof_C 	C 	0.8115	0.0313	0.5639	-0.145
Mof_H 	H 	0.8618	0.0493	0.5423	0.075
Mof_C 	C 	0.8151	0.3237	0.7837	-0.151
Mof_H 	H 	0.8611	0.3038	0.8073	0.079
Mof_C 	C 	0.8103	0.0339	0.6268	0.082
Mof_H 	H 	0.8587	0.0555	0.6467	-0.031
Mof_C 	C 	0.6707	0.9781	0.6297	0.083
Mof_H 	H 	0.622	0.9594	0.6522	-0.015
Mof_C 	C 	0.813	0.3853	0.7832	0.089
Mof_H 	H 	0.8575	0.4062	0.807	-0.026
Mof_N 	N 	0.7582	0.50647	0.6587	-0.244
Mof_C 	C 	0.683	0.691	0.7836	-0.137
Mof_H 	H 	0.6367	0.7106	0.8072	0.073
Mof_C 	C 	0.6854	0.629	0.782	0.071
Mof_H 	H 	0.6393	0.608	0.8044	-0.02
Mof_C 	C 	0.7625	0.5016	0.5343	0.061
Mof_C 	C 	0.8344	0.475	0.5673	-0.145
Mof_H 	H 	0.8858	0.4552	0.5484	0.077
Mof_C 	C 	0.6885	0.5313	0.5639	-0.145
Mof_H 	H 	0.6382	0.5493	0.5423	0.077
Mof_C 	C 	0.6849	0.8237	0.7837	-0.15
Mof_H 	H 	0.6389	0.8038	0.8073	0.081
Mof_C 	C 	0.6897	0.5339	0.6268	0.082
Mof_H 	H 	0.6413	0.5555	0.6467	-0.029
Mof_C 	C 	0.8293	0.4781	0.6297	0.082
Mof_H 	H 	0.878	0.4594	0.6522	-0.019
Mof_C 	C 	0.687	0.8853	0.7832	0.09
Mof_H 	H 	0.6425	0.9062	0.807	-0.024
Mof_N 	N 	0.7418	0.49353	0.1587	-0.244
Mof_C 	C 	0.817	0.309	0.2836	-0.138
Mof_H 	H 	0.8633	0.2894	0.3072	0.071
Mof_C 	C 	0.8146	0.371	0.282	0.07
Mof_H 	H 	0.8607	0.392	0.3044	-0.022
Mof_C 	C 	0.7375	0.4984	0.0343	0.061
Mof_C 	C 	0.6656	0.525	0.0673	-0.144
Mof_H 	H 	0.6142	0.5448	0.0484	0.08
Mof_C 	C 	0.8115	0.4687	0.0639	-0.145
Mof_H 	H 	0.8618	0.4507	0.0423	0.075
Mof_C 	C 	0.8151	0.1763	0.2837	-0.151
Mof_H 	H 	0.8611	0.1962	0.3073	0.079
Mof_C 	C 	0.8103	0.4661	0.1268	0.082
Mof_H 	H 	0.8587	0.4445	0.1467	-0.031
Mof_C 	C 	0.6707	0.5219	0.1297	0.082
Mof_H 	H 	0.622	0.5406	0.1522	-0.015
Mof_C 	C 	0.813	0.1147	0.2832	0.089
Mof_H 	H 	0.8575	0.0938	0.307	-0.026
Mof_N 	N 	0.7418	0.50647	0.8413	-0.244
Mof_C 	C 	0.817	0.691	0.7164	-0.138
Mof_H 	H 	0.8633	0.7106	0.6928	0.071
Mof_C 	C 	0.8146	0.629	0.718	0.07
Mof_H 	H 	0.8607	0.608	0.6956	-0.022
Mof_C 	C 	0.7375	0.5016	0.9657	0.061
Mof_C 	C 	0.6656	0.475	0.9327	-0.144
Mof_H 	H 	0.6142	0.4552	0.9516	0.08
Mof_C 	C 	0.8115	0.5313	0.9361	-0.145
Mof_H 	H 	0.8618	0.5493	0.9577	0.075
Mof_C 	C 	0.8151	0.8237	0.7163	-0.151
Mof_H 	H 	0.8611	0.8038	0.6927	0.079
Mof_C 	C 	0.8103	0.5339	0.8732	0.082
Mof_H 	H 	0.8587	0.5555	0.8533	-0.031
Mof_C 	C 	0.6707	0.4781	0.8703	0.082
Mof_H 	H 	0.622	0.4594	0.8478	-0.015
Mof_C 	C 	0.813	0.8853	0.7168	0.089
Mof_H 	H 	0.8575	0.9062	0.693	-0.026
Mof_N 	N 	0.7582	0.49353	0.3413	-0.244
Mof_C 	C 	0.683	0.309	0.2164	-0.137
Mof_H 	H 	0.6367	0.2894	0.1928	0.073
Mof_C 	C 	0.6854	0.371	0.218	0.071
Mof_H 	H 	0.6393	0.392	0.1956	-0.02
Mof_C 	C 	0.7625	0.4984	0.4657	0.061
Mof_C 	C 	0.8344	0.525	0.4327	-0.145
Mof_H 	H 	0.8858	0.5448	0.4516	0.077
Mof_C 	C 	0.6885	0.4687	0.4361	-0.145
Mof_H 	H 	0.6382	0.4507	0.4577	0.077
Mof_C 	C 	0.6849	0.1763	0.2163	-0.15
Mof_H 	H 	0.6389	0.1962	0.1927	0.081
Mof_C 	C 	0.6897	0.4661	0.3732	0.082
Mof_H 	H 	0.6413	0.4445	0.3533	-0.029
Mof_C 	C 	0.8293	0.5219	0.3703	0.082
Mof_H 	H 	0.878	0.5406	0.3478	-0.019
Mof_C 	C 	0.687	0.1147	0.2168	0.09
Mof_H 	H 	0.6425	0.0938	0.193	-0.024
Mof_Cu	Cu	0.75	0.00746	0.75	0.849
Mof_N 	N 	0.75	0.0975	0.75	-0.246
Mof_C 	C 	0.75	0.2248	0.75	0.045
Mof_C 	C 	0.75	0.2911	0.75	0.076
Mof_N 	N 	0.75	0.4166	0.75	-0.247
Mof_Cu	Cu	0.75	0.99254	0.25	0.849
Mof_N 	N 	0.75	0.9025	0.25	-0.246
Mof_C 	C 	0.75	0.7752	0.25	0.045
Mof_C 	C 	0.75	0.7089	0.25	0.076
Mof_N 	N 	0.75	0.5834	0.25	-0.247
Mof_Cu	Cu	0.75	0.50746	0.75	0.849
Mof_N 	N 	0.75	0.5975	0.75	-0.246
Mof_C 	C 	0.75	0.7248	0.75	0.045
Mof_C 	C 	0.75	0.7911	0.75	0.076
Mof_N 	N 	0.75	0.9166	0.75	-0.247
Mof_Cu	Cu	0.75	0.49254	0.25	0.849
Mof_N 	N 	0.75	0.4025	0.25	-0.246
Mof_C 	C 	0.75	0.2752	0.25	0.045
Mof_C 	C 	0.75	0.2089	0.25	0.076
Mof_N 	N 	0.75	0.0834	0.25	-0.247
Mof_O 	O 	0.708	0.706	0.0536	-0.281
Mof_N 	N 	0.591	0.7389	0.1164	-0.002
Mof_C 	C 	0.666	0.7459	0.0804	-0.02
Mof_H 	H 	0.689	0.7848	0.0748	0.061
Mof_C 	C 	0.553	0.6805	0.128	-0.321
Mof_H 	H 	0.5317	0.6623	0.0914	0.15
Mof_H 	H 	0.6027	0.656	0.1466	0.164
Mof_C 	C 	0.544	0.7894	0.146	-0.385
Mof_H 	H 	0.4911	0.7751	0.1705	0.222
Mof_H 	H 	0.591	0.8095	0.1715	0.128
Mof_H 	H 	0.52	0.817	0.1165	0.116
Mof_O 	O 	0.78	0.699	0.954	-0.41
Mof_N 	N 	0.729	0.766	0.024	-0.188
Mof_C 	C 	0.742	0.711	0.002	0.364
Mof_H 	H 	0.7202	0.6795	0.0257	-0.314
Mof_C 	C 	0.759	0.817	0.99	0.328
Mof_H 	H 	0.744	0.8531	0.0126	-0.022
Mof_H 	H 	0.8276	0.8153	0.9825	0.138
Mof_H 	H 	0.7241	0.8181	0.9525	0.075
Mof_C 	C 	0.684	0.776	0.082	0.241
Mof_H 	H 	0.6815	0.8188	0.0898	0.023
Mof_H 	H 	0.619	0.7602	0.082	0.014
Mof_H 	H 	0.7218	0.757	0.113	-0.01
Mof_O 	O 	0.208	0.794	0.9464	-0.281
Mof_N 	N 	0.091	0.7611	0.8836	0.005
Mof_C 	C 	0.166	0.7541	0.9196	-0.021
Mof_H 	H 	0.189	0.7152	0.9252	0.061
Mof_C 	C 	0.053	0.8195	0.872	-0.343
Mof_H 	H 	0.0317	0.8377	0.9086	0.162
Mof_H 	H 	0.1027	0.844	0.8534	0.169
Mof_C 	C 	0.044	0.7106	0.854	-0.405
Mof_H 	H 	0.9911	0.7249	0.8295	0.261
Mof_H 	H 	0.091	0.6905	0.8285	0.137
Mof_H 	H 	0.02	0.683	0.8835	0.177
Mof_O 	O 	0.28	0.801	0.046	-0.41
Mof_N 	N 	0.229	0.734	0.976	-0.188
Mof_C 	C 	0.242	0.789	0.998	0.369
Mof_H 	H 	0.2202	0.8205	0.9743	-0.318
Mof_C 	C 	0.259	0.683	0.01	0.329
Mof_H 	H 	0.244	0.6469	0.9874	-0.021
Mof_H 	H 	0.3276	0.6847	0.0175	0.14
Mof_H 	H 	0.2241	0.6819	0.0475	0.076
Mof_C 	C 	0.184	0.724	0.918	0.241
Mof_H 	H 	0.1815	0.6812	0.9102	0.022
Mof_H 	H 	0.119	0.7398	0.918	0.013
Mof_H 	H 	0.2218	0.743	0.887	-0.01
Mof_O 	O 	0.792	0.794	0.9464	-0.281
Mof_N 	N 	0.909	0.7611	0.8836	0.001
Mof_C 	C 	0.834	0.7541	0.9196	-0.021
Mof_H 	H 	0.811	0.7152	0.9252	0.06
Mof_C 	C 	0.947	0.8195	0.872	-0.371
Mof_H 	H 	0.9683	0.8377	0.9086	0.154
Mof_H 	H 	0.8973	0.844	0.8534	0.174
Mof_C 	C 	0.956	0.7106	0.854	-0.369
Mof_H 	H 	0.0089	0.7249	0.8295	0.181
Mof_H 	H 	0.909	0.6905	0.8285	0.121
Mof_H 	H 	0.98	0.683	0.8835	0.056
Mof_O 	O 	0.72	0.801	0.046	-0.411
Mof_N 	N 	0.771	0.734	0.976	-0.187
Mof_C 	C 	0.758	0.789	0.998	0.365
Mof_H 	H 	0.7798	0.8205	0.9743	-0.314
Mof_C 	C 	0.741	0.683	0.01	0.328
Mof_H 	H 	0.756	0.6469	0.9874	-0.022
Mof_H 	H 	0.6724	0.6847	0.0175	0.139
Mof_H 	H 	0.7759	0.6819	0.0475	0.074
Mof_C 	C 	0.816	0.724	0.918	0.241
Mof_H 	H 	0.8185	0.6812	0.9102	0.024
Mof_H 	H 	0.881	0.7398	0.918	0.014
Mof_H 	H 	0.7782	0.743	0.887	-0.01
Mof_O 	O 	0.292	0.706	0.0536	-0.281
Mof_N 	N 	0.409	0.7389	0.1164	-0.002
Mof_C 	C 	0.334	0.7459	0.0804	-0.02
Mof_H 	H 	0.311	0.7848	0.0748	0.061
Mof_C 	C 	0.447	0.6805	0.128	-0.321
Mof_H 	H 	0.4683	0.6623	0.0914	0.15
Mof_H 	H 	0.3973	0.656	0.1466	0.164
Mof_C 	C 	0.456	0.7894	0.146	-0.385
Mof_H 	H 	0.5089	0.7751	0.1705	0.222
Mof_H 	H 	0.409	0.8095	0.1715	0.128
Mof_H 	H 	0.48	0.817	0.1165	0.116
Mof_O 	O 	0.22	0.699	0.954	-0.41
Mof_N 	N 	0.271	0.766	0.024	-0.19
Mof_C 	C 	0.258	0.711	0.002	0.366
Mof_H 	H 	0.2798	0.6795	0.0257	-0.316
Mof_C 	C 	0.241	0.817	0.99	0.329
Mof_H 	H 	0.256	0.8531	0.0126	-0.021
Mof_H 	H 	0.1724	0.8153	0.9825	0.141
Mof_H 	H 	0.2759	0.8181	0.9525	0.075
Mof_C 	C 	0.316	0.776	0.082	0.241
Mof_H 	H 	0.3185	0.8188	0.0898	0.024
Mof_H 	H 	0.381	0.7602	0.082	0.014
Mof_H 	H 	0.2782	0.757	0.113	-0.009
Mof_H 	H 	0.5	0.6837	0.1556	0.421
Mof_O 	O 	0.5	0.733	0.168	-0.362
Mof_O 	O 	0.5	0.632	0.1385	-0.266
Mof_H 	H 	5.00218e-32	0.8163	0.8444	0.446
Mof_O 	O 	5.05329e-33	0.767	0.832	-0.353
Mof_O 	O 	2.01969e-32	0.868	0.8615	-0.254
Mof_O 	O 	0.208	0.206	0.0536	-0.281
Mof_N 	N 	0.091	0.2389	0.1164	0.005
Mof_C 	C 	0.166	0.2459	0.0804	-0.021
Mof_H 	H 	0.189	0.2848	0.0748	0.061
Mof_C 	C 	0.053	0.1805	0.128	-0.343
Mof_H 	H 	0.0317	0.1623	0.0914	0.162
Mof_H 	H 	0.1027	0.156	0.1466	0.169
Mof_C 	C 	0.044	0.2894	0.146	-0.405
Mof_H 	H 	0.9911	0.2751	0.1705	0.261
Mof_H 	H 	0.091	0.3095	0.1715	0.137
Mof_H 	H 	0.02	0.317	0.1165	0.177
Mof_O 	O 	0.28	0.199	0.954	-0.41
Mof_N 	N 	0.229	0.266	0.024	-0.188
Mof_C 	C 	0.242	0.211	0.002	0.369
Mof_H 	H 	0.2202	0.1795	0.0257	-0.318
Mof_C 	C 	0.259	0.317	0.99	0.329
Mof_H 	H 	0.244	0.3531	0.0126	-0.021
Mof_H 	H 	0.3276	0.3153	0.9825	0.14
Mof_H 	H 	0.2241	0.3181	0.9525	0.076
Mof_C 	C 	0.184	0.276	0.082	0.241
Mof_H 	H 	0.1815	0.3188	0.0898	0.022
Mof_H 	H 	0.119	0.2602	0.082	0.013
Mof_H 	H 	0.2218	0.257	0.113	-0.01
Mof_O 	O 	0.708	0.294	0.9464	-0.281
Mof_N 	N 	0.591	0.2611	0.8836	-0.002
Mof_C 	C 	0.666	0.2541	0.9196	-0.02
Mof_H 	H 	0.689	0.2152	0.9252	0.061
Mof_C 	C 	0.553	0.3195	0.872	-0.321
Mof_H 	H 	0.5317	0.3377	0.9086	0.15
Mof_H 	H 	0.6027	0.344	0.8534	0.164
Mof_C 	C 	0.544	0.2106	0.854	-0.385
Mof_H 	H 	0.4911	0.2249	0.8295	0.222
Mof_H 	H 	0.591	0.1905	0.8285	0.128
Mof_H 	H 	0.52	0.183	0.8835	0.116
Mof_O 	O 	0.78	0.301	0.046	-0.41
Mof_N 	N 	0.729	0.234	0.976	-0.188
Mof_C 	C 	0.742	0.289	0.998	0.364
Mof_H 	H 	0.7202	0.3205	0.9743	-0.314
Mof_C 	C 	0.759	0.183	0.01	0.328
Mof_H 	H 	0.744	0.1469	0.9874	-0.022
Mof_H 	H 	0.8276	0.1847	0.0175	0.138
Mof_H 	H 	0.7241	0.1819	0.0475	0.075
Mof_C 	C 	0.684	0.224	0.918	0.241
Mof_H 	H 	0.6815	0.1812	0.9102	0.023
Mof_H 	H 	0.619	0.2398	0.918	0.014
Mof_H 	H 	0.7218	0.243	0.887	-0.01
Mof_O 	O 	0.292	0.294	0.9464	-0.281
Mof_N 	N 	0.409	0.2611	0.8836	-0.002
Mof_C 	C 	0.334	0.2541	0.9196	-0.02
Mof_H 	H 	0.311	0.2152	0.9252	0.061
Mof_C 	C 	0.447	0.3195	0.872	-0.321
Mof_H 	H 	0.4683	0.3377	0.9086	0.15
Mof_H 	H 	0.3973	0.344	0.8534	0.164
Mof_C 	C 	0.456	0.2106	0.854	-0.385
Mof_H 	H 	0.5089	0.2249	0.8295	0.222
Mof_H 	H 	0.409	0.1905	0.8285	0.128
Mof_H 	H 	0.48	0.183	0.8835	0.116
Mof_O 	O 	0.22	0.301	0.046	-0.41
Mof_N 	N 	0.271	0.234	0.976	-0.19
Mof_C 	C 	0.258	0.289	0.998	0.366
Mof_H 	H 	0.2798	0.3205	0.9743	-0.316
Mof_C 	C 	0.241	0.183	0.01	0.329
Mof_H 	H 	0.256	0.1469	0.9874	-0.021
Mof_H 	H 	0.1724	0.1847	0.0175	0.141
Mof_H 	H 	0.2759	0.1819	0.0475	0.075
Mof_C 	C 	0.316	0.224	0.918	0.241
Mof_H 	H 	0.3185	0.1812	0.9102	0.024
Mof_H 	H 	0.381	0.2398	0.918	0.014
Mof_H 	H 	0.2782	0.243	0.887	-0.009
Mof_O 	O 	0.792	0.206	0.0536	-0.281
Mof_N 	N 	0.909	0.2389	0.1164	0.001
Mof_C 	C 	0.834	0.2459	0.0804	-0.021
Mof_H 	H 	0.811	0.2848	0.0748	0.06
Mof_C 	C 	0.947	0.1805	0.128	-0.371
Mof_H 	H 	0.9683	0.1623	0.0914	0.154
Mof_H 	H 	0.8973	0.156	0.1466	0.174
Mof_C 	C 	0.956	0.2894	0.146	-0.369
Mof_H 	H 	0.0089	0.2751	0.1705	0.181
Mof_H 	H 	0.909	0.3095	0.1715	0.121
Mof_H 	H 	0.98	0.317	0.1165	0.056
Mof_O 	O 	0.72	0.199	0.954	-0.411
Mof_N 	N 	0.771	0.266	0.024	-0.187
Mof_C 	C 	0.758	0.211	0.002	0.365
Mof_H 	H 	0.7798	0.1795	0.0257	-0.314
Mof_C 	C 	0.741	0.317	0.99	0.328
Mof_H 	H 	0.756	0.3531	0.0126	-0.022
Mof_H 	H 	0.6724	0.3153	0.9825	0.139
Mof_H 	H 	0.7759	0.3181	0.9525	0.074
Mof_C 	C 	0.816	0.276	0.082	0.241
Mof_H 	H 	0.8185	0.3188	0.0898	0.024
Mof_H 	H 	0.881	0.2602	0.082	0.014
Mof_H 	H 	0.7782	0.257	0.113	-0.01
Mof_H 	H 	-9.2549e-34	0.1837	0.1556	0.446
Mof_O 	O 	6.63203e-33	0.233	0.168	-0.353
Mof_O 	O 	8.41202e-34	0.132	0.1385	-0.254
Mof_H 	H 	0.5	0.3163	0.8444	0.421
Mof_O 	O 	0.5	0.267	0.832	-0.362
Mof_O 	O 	0.5	0.368	0.8615	-0.266
Mof_O 	O 	0.292	0.794	0.5536	-0.281
Mof_N 	N 	0.409	0.7611	0.6164	-0.002
Mof_C 	C 	0.334	0.7541	0.5804	-0.02
Mof_H 	H 	0.311	0.7152	0.5748	0.06
Mof_C 	C 	0.447	0.8195	0.628	-0.321
Mof_H 	H 	0.4683	0.8377	0.5914	0.15
Mof_H 	H 	0.3973	0.844	0.6466	0.164
Mof_C 	C 	0.456	0.7106	0.646	-0.385
Mof_H 	H 	0.5089	0.7249	0.6705	0.222
Mof_H 	H 	0.409	0.6905	0.6715	0.128
Mof_H 	H 	0.48	0.683	0.6165	0.116
Mof_O 	O 	0.22	0.801	0.454	-0.41
Mof_N 	N 	0.271	0.734	0.524	-0.189
Mof_C 	C 	0.258	0.789	0.502	0.366
Mof_H 	H 	0.2798	0.8205	0.5257	-0.316
Mof_C 	C 	0.241	0.683	0.49	0.328
Mof_H 	H 	0.256	0.6469	0.5126	-0.021
Mof_H 	H 	0.1724	0.6847	0.4825	0.141
Mof_H 	H 	0.2759	0.6819	0.4525	0.075
Mof_C 	C 	0.316	0.724	0.582	0.241
Mof_H 	H 	0.3185	0.6812	0.5898	0.024
Mof_H 	H 	0.381	0.7398	0.582	0.014
Mof_H 	H 	0.2782	0.743	0.613	-0.009
Mof_O 	O 	0.792	0.706	0.4464	-0.281
Mof_N 	N 	0.909	0.7389	0.3836	0.001
Mof_C 	C 	0.834	0.7459	0.4196	-0.021
Mof_H 	H 	0.811	0.7848	0.4252	0.06
Mof_C 	C 	0.947	0.6805	0.372	-0.371
Mof_H 	H 	0.9683	0.6623	0.4086	0.154
Mof_H 	H 	0.8973	0.656	0.3534	0.174
Mof_C 	C 	0.956	0.7894	0.354	-0.369
Mof_H 	H 	0.0089	0.7751	0.3295	0.181
Mof_H 	H 	0.909	0.8095	0.3285	0.121
Mof_H 	H 	0.98	0.817	0.3835	0.056
Mof_O 	O 	0.72	0.699	0.546	-0.41
Mof_N 	N 	0.771	0.766	0.476	-0.187
Mof_C 	C 	0.758	0.711	0.498	0.363
Mof_H 	H 	0.7798	0.6795	0.4743	-0.313
Mof_C 	C 	0.741	0.817	0.51	0.328
Mof_H 	H 	0.756	0.8531	0.4874	-0.022
Mof_H 	H 	0.6724	0.8153	0.5175	0.139
Mof_H 	H 	0.7759	0.8181	0.5475	0.074
Mof_C 	C 	0.816	0.776	0.418	0.241
Mof_H 	H 	0.8185	0.8188	0.4102	0.024
Mof_H 	H 	0.881	0.7602	0.418	0.013
Mof_H 	H 	0.7782	0.757	0.387	-0.01
Mof_O 	O 	0.208	0.706	0.4464	-0.281
Mof_N 	N 	0.091	0.7389	0.3836	0.005
Mof_C 	C 	0.166	0.7459	0.4196	-0.02
Mof_H 	H 	0.189	0.7848	0.4252	0.061
Mof_C 	C 	0.053	0.6805	0.372	-0.344
Mof_H 	H 	0.0317	0.6623	0.4086	0.162
Mof_H 	H 	0.1027	0.656	0.3534	0.169
Mof_C 	C 	0.044	0.7894	0.354	-0.405
Mof_H 	H 	0.9911	0.7751	0.3295	0.261
Mof_H 	H 	0.091	0.8095	0.3285	0.137
Mof_H 	H 	0.02	0.817	0.3835	0.177
Mof_O 	O 	0.28	0.699	0.546	-0.41
Mof_N 	N 	0.229	0.766	0.476	-0.188
Mof_C 	C 	0.242	0.711	0.498	0.367
Mof_H 	H 	0.2202	0.6795	0.4743	-0.317
Mof_C 	C 	0.259	0.817	0.51	0.328
Mof_H 	H 	0.244	0.8531	0.4874	-0.021
Mof_H 	H 	0.3276	0.8153	0.5175	0.14
Mof_H 	H 	0.2241	0.8181	0.5475	0.076
Mof_C 	C 	0.184	0.776	0.418	0.241
Mof_H 	H 	0.1815	0.8188	0.4102	0.022
Mof_H 	H 	0.119	0.7602	0.418	0.013
Mof_H 	H 	0.2218	0.757	0.387	-0.01
Mof_O 	O 	0.708	0.794	0.5536	-0.281
Mof_N 	N 	0.591	0.7611	0.6164	-0.002
Mof_C 	C 	0.666	0.7541	0.5804	-0.02
Mof_H 	H 	0.689	0.7152	0.5748	0.06
Mof_C 	C 	0.553	0.8195	0.628	-0.321
Mof_H 	H 	0.5317	0.8377	0.5914	0.15
Mof_H 	H 	0.6027	0.844	0.6466	0.164
Mof_C 	C 	0.544	0.7106	0.646	-0.385
Mof_H 	H 	0.4911	0.7249	0.6705	0.222
Mof_H 	H 	0.591	0.6905	0.6715	0.128
Mof_H 	H 	0.52	0.683	0.6165	0.116
Mof_O 	O 	0.78	0.801	0.454	-0.411
Mof_N 	N 	0.729	0.734	0.524	-0.187
Mof_C 	C 	0.742	0.789	0.502	0.364
Mof_H 	H 	0.7202	0.8205	0.5257	-0.314
Mof_C 	C 	0.759	0.683	0.49	0.328
Mof_H 	H 	0.744	0.6469	0.5126	-0.022
Mof_H 	H 	0.8276	0.6847	0.4825	0.138
Mof_H 	H 	0.7241	0.6819	0.4525	0.075
Mof_C 	C 	0.684	0.724	0.582	0.241
Mof_H 	H 	0.6815	0.6812	0.5898	0.023
Mof_H 	H 	0.619	0.7398	0.582	0.014
Mof_H 	H 	0.7218	0.743	0.613	-0.01
Mof_H 	H 	0.5	0.8163	0.6556	0.421
Mof_O 	O 	0.5	0.767	0.668	-0.362
Mof_O 	O 	0.5	0.868	0.6385	-0.266
Mof_H 	H 	9.57398e-33	0.6837	0.3444	0.447
Mof_O 	O 	-1.72465e-33	0.733	0.332	-0.353
Mof_O 	O 	9.67784e-33	0.632	0.3615	-0.254
Mof_O 	O 	0.792	0.294	0.5536	-0.281
Mof_N 	N 	0.909	0.2611	0.6164	0.001
Mof_C 	C 	0.834	0.2541	0.5804	-0.021
Mof_H 	H 	0.811	0.2152	0.5748	0.06
Mof_C 	C 	0.947	0.3195	0.628	-0.371
Mof_H 	H 	0.9683	0.3377	0.5914	0.154
Mof_H 	H 	0.8973	0.344	0.6466	0.174
Mof_C 	C 	0.956	0.2106	0.646	-0.369
Mof_H 	H 	0.0089	0.2249	0.6705	0.181
Mof_H 	H 	0.909	0.1905	0.6715	0.121
Mof_H 	H 	0.98	0.183	0.6165	0.056
Mof_O 	O 	0.72	0.301	0.454	-0.41
Mof_N 	N 	0.771	0.234	0.524	-0.187
Mof_C 	C 	0.758	0.289	0.502	0.363
Mof_H 	H 	0.7798	0.3205	0.5257	-0.313
Mof_C 	C 	0.741	0.183	0.49	0.328
Mof_H 	H 	0.756	0.1469	0.5126	-0.022
Mof_H 	H 	0.6724	0.1847	0.4825	0.139
Mof_H 	H 	0.7759	0.1819	0.4525	0.074
Mof_C 	C 	0.816	0.224	0.582	0.241
Mof_H 	H 	0.8185	0.1812	0.5898	0.024
Mof_H 	H 	0.881	0.2398	0.582	0.013
Mof_H 	H 	0.7782	0.243	0.613	-0.01
Mof_O 	O 	0.292	0.206	0.4464	-0.281
Mof_N 	N 	0.409	0.2389	0.3836	-0.002
Mof_C 	C 	0.334	0.2459	0.4196	-0.02
Mof_H 	H 	0.311	0.2848	0.4252	0.06
Mof_C 	C 	0.447	0.1805	0.372	-0.321
Mof_H 	H 	0.4683	0.1623	0.4086	0.15
Mof_H 	H 	0.3973	0.156	0.3534	0.164
Mof_C 	C 	0.456	0.2894	0.354	-0.385
Mof_H 	H 	0.5089	0.2751	0.3295	0.222
Mof_H 	H 	0.409	0.3095	0.3285	0.128
Mof_H 	H 	0.48	0.317	0.3835	0.116
Mof_O 	O 	0.22	0.199	0.546	-0.41
Mof_N 	N 	0.271	0.266	0.476	-0.189
Mof_C 	C 	0.258	0.211	0.498	0.366
Mof_H 	H 	0.2798	0.1795	0.4743	-0.316
Mof_C 	C 	0.241	0.317	0.51	0.328
Mof_H 	H 	0.256	0.3531	0.4874	-0.021
Mof_H 	H 	0.1724	0.3153	0.5175	0.141
Mof_H 	H 	0.2759	0.3181	0.5475	0.075
Mof_C 	C 	0.316	0.276	0.418	0.241
Mof_H 	H 	0.3185	0.3188	0.4102	0.024
Mof_H 	H 	0.381	0.2602	0.418	0.014
Mof_H 	H 	0.2782	0.257	0.387	-0.009
Mof_O 	O 	0.708	0.206	0.4464	-0.281
Mof_N 	N 	0.591	0.2389	0.3836	-0.002
Mof_C 	C 	0.666	0.2459	0.4196	-0.02
Mof_H 	H 	0.689	0.2848	0.4252	0.06
Mof_C 	C 	0.553	0.1805	0.372	-0.321
Mof_H 	H 	0.5317	0.1623	0.4086	0.15
Mof_H 	H 	0.6027	0.156	0.3534	0.164
Mof_C 	C 	0.544	0.2894	0.354	-0.385
Mof_H 	H 	0.4911	0.2751	0.3295	0.222
Mof_H 	H 	0.591	0.3095	0.3285	0.128
Mof_H 	H 	0.52	0.317	0.3835	0.116
Mof_O 	O 	0.78	0.199	0.546	-0.411
Mof_N 	N 	0.729	0.266	0.476	-0.187
Mof_C 	C 	0.742	0.211	0.498	0.364
Mof_H 	H 	0.7202	0.1795	0.4743	-0.314
Mof_C 	C 	0.759	0.317	0.51	0.328
Mof_H 	H 	0.744	0.3531	0.4874	-0.022
Mof_H 	H 	0.8276	0.3153	0.5175	0.138
Mof_H 	H 	0.7241	0.3181	0.5475	0.075
Mof_C 	C 	0.684	0.276	0.418	0.241
Mof_H 	H 	0.6815	0.3188	0.4102	0.023
Mof_H 	H 	0.619	0.2602	0.418	0.014
Mof_H 	H 	0.7218	0.257	0.387	-0.01
Mof_O 	O 	0.208	0.294	0.5536	-0.281
Mof_N 	N 	0.091	0.2611	0.6164	0.005
Mof_C 	C 	0.166	0.2541	0.5804	-0.02
Mof_H 	H 	0.189	0.2152	0.5748	0.061
Mof_C 	C 	0.053	0.3195	0.628	-0.344
Mof_H 	H 	0.0317	0.3377	0.5914	0.162
Mof_H 	H 	0.1027	0.344	0.6466	0.169
Mof_C 	C 	0.044	0.2106	0.646	-0.405
Mof_H 	H 	0.9911	0.2249	0.6705	0.261
Mof_H 	H 	0.091	0.1905	0.6715	0.137
Mof_H 	H 	0.02	0.183	0.6165	0.177
Mof_O 	O 	0.28	0.301	0.454	-0.41
Mof_N 	N 	0.229	0.234	0.524	-0.188
Mof_C 	C 	0.242	0.289	0.502	0.367
Mof_H 	H 	0.2202	0.3205	0.5257	-0.317
Mof_C 	C 	0.259	0.183	0.49	0.328
Mof_H 	H 	0.244	0.1469	0.5126	-0.021
Mof_H 	H 	0.3276	0.1847	0.4825	0.14
Mof_H 	H 	0.2241	0.1819	0.4525	0.076
Mof_C 	C 	0.184	0.224	0.582	0.241
Mof_H 	H 	0.1815	0.1812	0.5898	0.022
Mof_H 	H 	0.119	0.2398	0.582	0.013
Mof_H 	H 	0.2218	0.243	0.613	-0.01
Mof_H 	H 	2.64285e-32	0.3163	0.6556	0.447
Mof_O 	O 	-3.425e-33	0.267	0.668	-0.353
Mof_O 	O 	1.13602e-32	0.368	0.6385	-0.254
Mof_H 	H 	0.5	0.1837	0.3444	0.421
Mof_O 	O 	0.5	0.233	0.332	-0.362
Mof_O 	O 	0.5	0.132	0.3615	-0.266
_end
