data_functionalizedCrystal
_audit_creation_method	'EQeq! by Chris Wilmer'
_symmetry_space_group_name_H-M	'P1'
_symmetry_Int_Tables_number	1
_symmetry_cell_setting	triclinic
loop_
_symmetry_equiv_pos_as_xyz
  x,y,z
_cell_length_a	38.4224
_cell_length_b	38.4224
_cell_length_c	38.4224
_cell_angle_alpha	90
_cell_angle_beta	90
_cell_angle_gamma	90
loop_
_atom_site_label
_atom_site_type_symbol
_atom_site_fract_x
_atom_site_fract_y
_atom_site_fract_z
_atom_site_charge
Mof_C 	C 	0.23318	0.26544	0.4893	-2.576
Mof_H 	H 	0.2288	0.2833	0.4724	-8.767
Mof_C 	C 	0.20803	0.24031	0.496	0.392
Mof_C 	C 	0.24589	0.21361	0.5382	-8.383
Mof_H 	H 	0.2503	0.1957	0.555	3.269
Mof_C 	C 	0.27104	0.23874	0.5315	18.877
Mof_C 	C 	0.10446	0.1456	0.531	0.483
Mof_H 	H 	0.0983	0.1679	0.5214	-0.131
Mof_C 	C 	0.07908	0.1202	0.5354	-0.489
Mof_H 	H 	0.0554	0.1249	0.5289	0.186
Mof_C 	C 	0.1222	0.0812	0.5587	-0.32
Mof_H 	H 	0.1284	0.059	0.5683	-0.006
Mof_C 	C 	0.14758	0.1066	0.5543	-0.049
Mof_H 	H 	0.1712	0.102	0.5609	-0.001
Mof_C 	C 	0.07819	0.03059	0.5491	0.119
Mof_C 	C 	0.11092	0.01762	0.5509	0.029
Mof_C 	C 	0.14143	0.04076	0.5588	-0.497
Mof_H 	H 	0.1458	0.0383	0.5833	0.161
Mof_H 	H 	0.1347	0.0645	0.5549	0.433
Mof_C 	C 	0.1777	0.0298	0.5487	0.024
Mof_H 	H 	0.1946	0.046	0.5588	-0.014
Mof_H 	H 	0.1799	0.0301	0.5233	0.013
Mof_H 	H 	0.1822	0.0063	0.5573	0.003
Mof_C 	C 	0.17384	0.2412	0.4767	2.962
Mof_H 	H 	0.1595	0.2221	0.4842	-0.863
Mof_H 	H 	0.1622	0.2627	0.4814	-0.729
Mof_H 	H 	0.1782	0.2392	0.4522	-1.567
Mof_C 	C 	0.30522	0.2379	0.5508	-7.676
Mof_H 	H 	0.3054	0.2185	0.5665	2.225
Mof_H 	H 	0.324	0.2356	0.5345	2.777
Mof_H 	H 	0.308	0.2591	0.5638	1.5
Mof_C 	C 	0.76682	0.73456	0.4893	-2.577
Mof_H 	H 	0.7712	0.7167	0.4724	-8.771
Mof_C 	C 	0.79197	0.75969	0.496	0.393
Mof_C 	C 	0.75411	0.78639	0.5382	-8.386
Mof_H 	H 	0.7497	0.8043	0.555	3.272
Mof_C 	C 	0.72896	0.76126	0.5315	18.887
Mof_C 	C 	0.89554	0.8544	0.531	0.481
Mof_H 	H 	0.9017	0.8321	0.5214	-0.129
Mof_C 	C 	0.92092	0.8798	0.5354	-0.486
Mof_H 	H 	0.9446	0.8751	0.5289	0.186
Mof_C 	C 	0.8778	0.9188	0.5587	-0.319
Mof_H 	H 	0.8716	0.941	0.5683	-0.005
Mof_C 	C 	0.85242	0.8934	0.5543	-0.047
Mof_H 	H 	0.8288	0.898	0.5609	-0
Mof_C 	C 	0.92181	0.96941	0.5491	0.12
Mof_C 	C 	0.88908	0.98238	0.5509	0.025
Mof_C 	C 	0.85857	0.95924	0.5588	-0.491
Mof_H 	H 	0.8542	0.9617	0.5833	0.161
Mof_H 	H 	0.8653	0.9355	0.5549	0.432
Mof_C 	C 	0.8223	0.9702	0.5487	0.021
Mof_H 	H 	0.8054	0.954	0.5588	-0.012
Mof_H 	H 	0.8201	0.9699	0.5233	0.015
Mof_H 	H 	0.8178	0.9937	0.5573	0.004
Mof_C 	C 	0.82616	0.7588	0.4767	2.964
Mof_H 	H 	0.8405	0.7779	0.4842	-0.864
Mof_H 	H 	0.8378	0.7373	0.4814	-0.729
Mof_H 	H 	0.8218	0.7608	0.4522	-1.568
Mof_C 	C 	0.69478	0.7621	0.5508	-7.679
Mof_H 	H 	0.6946	0.7815	0.5665	2.225
Mof_H 	H 	0.676	0.7644	0.5345	2.778
Mof_H 	H 	0.692	0.7409	0.5638	1.501
Mof_C 	C 	0.76682	0.26544	0.5107	-2.576
Mof_H 	H 	0.7712	0.2833	0.5276	-8.768
Mof_C 	C 	0.79197	0.24031	0.504	0.393
Mof_C 	C 	0.75411	0.21361	0.4618	-8.384
Mof_H 	H 	0.7497	0.1957	0.445	3.271
Mof_C 	C 	0.72896	0.23874	0.4685	18.882
Mof_C 	C 	0.89554	0.1456	0.469	0.481
Mof_H 	H 	0.9017	0.1679	0.4786	-0.129
Mof_C 	C 	0.92092	0.1202	0.4646	-0.487
Mof_H 	H 	0.9446	0.1249	0.4711	0.186
Mof_C 	C 	0.8778	0.0812	0.4413	-0.319
Mof_H 	H 	0.8716	0.059	0.4317	-0.005
Mof_C 	C 	0.85242	0.1066	0.4457	-0.048
Mof_H 	H 	0.8288	0.102	0.4391	0
Mof_C 	C 	0.92181	0.03059	0.4509	0.12
Mof_C 	C 	0.88908	0.01762	0.4491	0.03
Mof_C 	C 	0.85857	0.04076	0.4412	-0.496
Mof_H 	H 	0.8542	0.0383	0.4167	0.162
Mof_H 	H 	0.8653	0.0645	0.4451	0.434
Mof_C 	C 	0.8223	0.0298	0.4513	0.025
Mof_H 	H 	0.8054	0.046	0.4412	-0.013
Mof_H 	H 	0.8201	0.0301	0.4767	0.014
Mof_H 	H 	0.8178	0.0063	0.4427	0.003
Mof_C 	C 	0.82616	0.2412	0.5233	2.963
Mof_H 	H 	0.8405	0.2221	0.5158	-0.863
Mof_H 	H 	0.8378	0.2627	0.5186	-0.729
Mof_H 	H 	0.8218	0.2392	0.5478	-1.568
Mof_C 	C 	0.69478	0.2379	0.4492	-7.678
Mof_H 	H 	0.6946	0.2185	0.4335	2.225
Mof_H 	H 	0.676	0.2356	0.4655	2.778
Mof_H 	H 	0.692	0.2591	0.4362	1.501
Mof_C 	C 	0.23318	0.73456	0.5107	-2.576
Mof_H 	H 	0.2288	0.7167	0.5276	-8.768
Mof_C 	C 	0.20803	0.75969	0.504	0.393
Mof_C 	C 	0.24589	0.78639	0.4618	-8.384
Mof_H 	H 	0.2503	0.8043	0.445	3.271
Mof_C 	C 	0.27104	0.76126	0.4685	18.882
Mof_C 	C 	0.10446	0.8544	0.469	0.483
Mof_H 	H 	0.0983	0.8321	0.4786	-0.13
Mof_C 	C 	0.07908	0.8798	0.4646	-0.488
Mof_H 	H 	0.0554	0.8751	0.4711	0.187
Mof_C 	C 	0.1222	0.9188	0.4413	-0.319
Mof_H 	H 	0.1284	0.941	0.4317	-0.005
Mof_C 	C 	0.14758	0.8934	0.4457	-0.047
Mof_H 	H 	0.1712	0.898	0.4391	-0
Mof_C 	C 	0.07819	0.96941	0.4509	0.121
Mof_C 	C 	0.11092	0.98238	0.4491	0.025
Mof_C 	C 	0.14143	0.95924	0.4412	-0.491
Mof_H 	H 	0.1458	0.9617	0.4167	0.161
Mof_H 	H 	0.1347	0.9355	0.4451	0.432
Mof_C 	C 	0.1777	0.9702	0.4513	0.021
Mof_H 	H 	0.1946	0.954	0.4412	-0.012
Mof_H 	H 	0.1799	0.9699	0.4767	0.015
Mof_H 	H 	0.1822	0.9937	0.4427	0.004
Mof_C 	C 	0.17384	0.7588	0.5233	2.963
Mof_H 	H 	0.1595	0.7779	0.5158	-0.863
Mof_H 	H 	0.1622	0.7373	0.5186	-0.729
Mof_H 	H 	0.1782	0.7608	0.5478	-1.567
Mof_C 	C 	0.30522	0.7621	0.4492	-7.678
Mof_H 	H 	0.3054	0.7815	0.4335	2.225
Mof_H 	H 	0.324	0.7644	0.4655	2.778
Mof_H 	H 	0.308	0.7409	0.4362	1.501
Mof_C 	C 	0.4893	0.23318	0.26544	-2.575
Mof_H 	H 	0.4724	0.2288	0.2833	-8.766
Mof_C 	C 	0.496	0.20803	0.24031	0.393
Mof_C 	C 	0.5382	0.24589	0.21361	-8.382
Mof_H 	H 	0.555	0.2503	0.1957	3.27
Mof_C 	C 	0.5315	0.27104	0.23874	18.878
Mof_C 	C 	0.531	0.10446	0.1456	0.484
Mof_H 	H 	0.5214	0.0983	0.1679	-0.13
Mof_C 	C 	0.5354	0.07908	0.1202	-0.488
Mof_H 	H 	0.5289	0.0554	0.1249	0.187
Mof_C 	C 	0.5587	0.1222	0.0812	-0.319
Mof_H 	H 	0.5683	0.1284	0.059	-0.005
Mof_C 	C 	0.5543	0.14758	0.1066	-0.048
Mof_H 	H 	0.5609	0.1712	0.102	0
Mof_C 	C 	0.5491	0.07819	0.03059	0.12
Mof_C 	C 	0.5509	0.11092	0.01762	0.03
Mof_C 	C 	0.5588	0.14143	0.04076	-0.496
Mof_H 	H 	0.5833	0.1458	0.0383	0.162
Mof_H 	H 	0.5549	0.1347	0.0645	0.434
Mof_C 	C 	0.5487	0.1777	0.0298	0.025
Mof_H 	H 	0.5588	0.1946	0.046	-0.013
Mof_H 	H 	0.5233	0.1799	0.0301	0.014
Mof_H 	H 	0.5573	0.1822	0.0063	0.003
Mof_C 	C 	0.4767	0.17384	0.2412	2.962
Mof_H 	H 	0.4842	0.1595	0.2221	-0.863
Mof_H 	H 	0.4814	0.1622	0.2627	-0.729
Mof_H 	H 	0.4522	0.1782	0.2392	-1.567
Mof_C 	C 	0.5508	0.30522	0.2379	-7.676
Mof_H 	H 	0.5665	0.3054	0.2185	2.225
Mof_H 	H 	0.5345	0.324	0.2356	2.777
Mof_H 	H 	0.5638	0.308	0.2591	1.5
Mof_C 	C 	0.4893	0.76682	0.73456	-2.577
Mof_H 	H 	0.4724	0.7712	0.7167	-8.771
Mof_C 	C 	0.496	0.79197	0.75969	0.393
Mof_C 	C 	0.5382	0.75411	0.78639	-8.386
Mof_H 	H 	0.555	0.7497	0.8043	3.272
Mof_C 	C 	0.5315	0.72896	0.76126	18.887
Mof_C 	C 	0.531	0.89554	0.8544	0.481
Mof_H 	H 	0.5214	0.9017	0.8321	-0.129
Mof_C 	C 	0.5354	0.92092	0.8798	-0.486
Mof_H 	H 	0.5289	0.9446	0.8751	0.186
Mof_C 	C 	0.5587	0.8778	0.9188	-0.319
Mof_H 	H 	0.5683	0.8716	0.941	-0.005
Mof_C 	C 	0.5543	0.85242	0.8934	-0.047
Mof_H 	H 	0.5609	0.8288	0.898	-0
Mof_C 	C 	0.5491	0.92181	0.96941	0.12
Mof_C 	C 	0.5509	0.88908	0.98238	0.025
Mof_C 	C 	0.5588	0.85857	0.95924	-0.491
Mof_H 	H 	0.5833	0.8542	0.9617	0.161
Mof_H 	H 	0.5549	0.8653	0.9355	0.432
Mof_C 	C 	0.5487	0.8223	0.9702	0.021
Mof_H 	H 	0.5588	0.8054	0.954	-0.012
Mof_H 	H 	0.5233	0.8201	0.9699	0.015
Mof_H 	H 	0.5573	0.8178	0.9937	0.004
Mof_C 	C 	0.4767	0.82616	0.7588	2.964
Mof_H 	H 	0.4842	0.8405	0.7779	-0.864
Mof_H 	H 	0.4814	0.8378	0.7373	-0.729
Mof_H 	H 	0.4522	0.8218	0.7608	-1.568
Mof_C 	C 	0.5508	0.69478	0.7621	-7.679
Mof_H 	H 	0.5665	0.6946	0.7815	2.225
Mof_H 	H 	0.5345	0.676	0.7644	2.778
Mof_H 	H 	0.5638	0.692	0.7409	1.501
Mof_C 	C 	0.5107	0.76682	0.26544	-2.576
Mof_H 	H 	0.5276	0.7712	0.2833	-8.768
Mof_C 	C 	0.504	0.79197	0.24031	0.393
Mof_C 	C 	0.4618	0.75411	0.21361	-8.384
Mof_H 	H 	0.445	0.7497	0.1957	3.271
Mof_C 	C 	0.4685	0.72896	0.23874	18.882
Mof_C 	C 	0.469	0.89554	0.1456	0.481
Mof_H 	H 	0.4786	0.9017	0.1679	-0.129
Mof_C 	C 	0.4646	0.92092	0.1202	-0.487
Mof_H 	H 	0.4711	0.9446	0.1249	0.186
Mof_C 	C 	0.4413	0.8778	0.0812	-0.319
Mof_H 	H 	0.4317	0.8716	0.059	-0.005
Mof_C 	C 	0.4457	0.85242	0.1066	-0.048
Mof_H 	H 	0.4391	0.8288	0.102	0
Mof_C 	C 	0.4509	0.92181	0.03059	0.12
Mof_C 	C 	0.4491	0.88908	0.01762	0.03
Mof_C 	C 	0.4412	0.85857	0.04076	-0.496
Mof_H 	H 	0.4167	0.8542	0.0383	0.162
Mof_H 	H 	0.4451	0.8653	0.0645	0.434
Mof_C 	C 	0.4513	0.8223	0.0298	0.025
Mof_H 	H 	0.4412	0.8054	0.046	-0.013
Mof_H 	H 	0.4767	0.8201	0.0301	0.014
Mof_H 	H 	0.4427	0.8178	0.0063	0.003
Mof_C 	C 	0.5233	0.82616	0.2412	2.963
Mof_H 	H 	0.5158	0.8405	0.2221	-0.863
Mof_H 	H 	0.5186	0.8378	0.2627	-0.729
Mof_H 	H 	0.5478	0.8218	0.2392	-1.568
Mof_C 	C 	0.4492	0.69478	0.2379	-7.678
Mof_H 	H 	0.4335	0.6946	0.2185	2.225
Mof_H 	H 	0.4655	0.676	0.2356	2.778
Mof_H 	H 	0.4362	0.692	0.2591	1.501
Mof_C 	C 	0.5107	0.23318	0.73456	-2.576
Mof_H 	H 	0.5276	0.2288	0.7167	-8.768
Mof_C 	C 	0.504	0.20803	0.75969	0.393
Mof_C 	C 	0.4618	0.24589	0.78639	-8.384
Mof_H 	H 	0.445	0.2503	0.8043	3.271
Mof_C 	C 	0.4685	0.27104	0.76126	18.882
Mof_C 	C 	0.469	0.10446	0.8544	0.483
Mof_H 	H 	0.4786	0.0983	0.8321	-0.13
Mof_C 	C 	0.4646	0.07908	0.8798	-0.488
Mof_H 	H 	0.4711	0.0554	0.8751	0.187
Mof_C 	C 	0.4413	0.1222	0.9188	-0.319
Mof_H 	H 	0.4317	0.1284	0.941	-0.005
Mof_C 	C 	0.4457	0.14758	0.8934	-0.047
Mof_H 	H 	0.4391	0.1712	0.898	-0
Mof_C 	C 	0.4509	0.07819	0.96941	0.121
Mof_C 	C 	0.4491	0.11092	0.98238	0.025
Mof_C 	C 	0.4412	0.14143	0.95924	-0.491
Mof_H 	H 	0.4167	0.1458	0.9617	0.161
Mof_H 	H 	0.4451	0.1347	0.9355	0.432
Mof_C 	C 	0.4513	0.1777	0.9702	0.021
Mof_H 	H 	0.4412	0.1946	0.954	-0.012
Mof_H 	H 	0.4767	0.1799	0.9699	0.015
Mof_H 	H 	0.4427	0.1822	0.9937	0.004
Mof_C 	C 	0.5233	0.17384	0.7588	2.963
Mof_H 	H 	0.5158	0.1595	0.7779	-0.863
Mof_H 	H 	0.5186	0.1622	0.7373	-0.729
Mof_H 	H 	0.5478	0.1782	0.7608	-1.567
Mof_C 	C 	0.4492	0.30522	0.7621	-7.678
Mof_H 	H 	0.4335	0.3054	0.7815	2.225
Mof_H 	H 	0.4655	0.324	0.7644	2.778
Mof_H 	H 	0.4362	0.308	0.7409	1.501
Mof_C 	C 	0.26544	0.4893	0.23318	-2.575
Mof_H 	H 	0.2833	0.4724	0.2288	-8.766
Mof_C 	C 	0.24031	0.496	0.20803	0.393
Mof_C 	C 	0.21361	0.5382	0.24589	-8.382
Mof_H 	H 	0.1957	0.555	0.2503	3.27
Mof_C 	C 	0.23874	0.5315	0.27104	18.878
Mof_C 	C 	0.1456	0.531	0.10446	0.484
Mof_H 	H 	0.1679	0.5214	0.0983	-0.13
Mof_C 	C 	0.1202	0.5354	0.07908	-0.488
Mof_H 	H 	0.1249	0.5289	0.0554	0.187
Mof_C 	C 	0.0812	0.5587	0.1222	-0.319
Mof_H 	H 	0.059	0.5683	0.1284	-0.005
Mof_C 	C 	0.1066	0.5543	0.14758	-0.048
Mof_H 	H 	0.102	0.5609	0.1712	0
Mof_C 	C 	0.03059	0.5491	0.07819	0.12
Mof_C 	C 	0.01762	0.5509	0.11092	0.03
Mof_C 	C 	0.04076	0.5588	0.14143	-0.496
Mof_H 	H 	0.0383	0.5833	0.1458	0.162
Mof_H 	H 	0.0645	0.5549	0.1347	0.434
Mof_C 	C 	0.0298	0.5487	0.1777	0.025
Mof_H 	H 	0.046	0.5588	0.1946	-0.013
Mof_H 	H 	0.0301	0.5233	0.1799	0.014
Mof_H 	H 	0.0063	0.5573	0.1822	0.003
Mof_C 	C 	0.2412	0.4767	0.17384	2.962
Mof_H 	H 	0.2221	0.4842	0.1595	-0.863
Mof_H 	H 	0.2627	0.4814	0.1622	-0.729
Mof_H 	H 	0.2392	0.4522	0.1782	-1.567
Mof_C 	C 	0.2379	0.5508	0.30522	-7.676
Mof_H 	H 	0.2185	0.5665	0.3054	2.225
Mof_H 	H 	0.2356	0.5345	0.324	2.777
Mof_H 	H 	0.2591	0.5638	0.308	1.5
Mof_C 	C 	0.73456	0.4893	0.76682	-2.577
Mof_H 	H 	0.7167	0.4724	0.7712	-8.771
Mof_C 	C 	0.75969	0.496	0.79197	0.393
Mof_C 	C 	0.78639	0.5382	0.75411	-8.386
Mof_H 	H 	0.8043	0.555	0.7497	3.272
Mof_C 	C 	0.76126	0.5315	0.72896	18.887
Mof_C 	C 	0.8544	0.531	0.89554	0.481
Mof_H 	H 	0.8321	0.5214	0.9017	-0.129
Mof_C 	C 	0.8798	0.5354	0.92092	-0.486
Mof_H 	H 	0.8751	0.5289	0.9446	0.186
Mof_C 	C 	0.9188	0.5587	0.8778	-0.319
Mof_H 	H 	0.941	0.5683	0.8716	-0.005
Mof_C 	C 	0.8934	0.5543	0.85242	-0.047
Mof_H 	H 	0.898	0.5609	0.8288	-0
Mof_C 	C 	0.96941	0.5491	0.92181	0.12
Mof_C 	C 	0.98238	0.5509	0.88908	0.025
Mof_C 	C 	0.95924	0.5588	0.85857	-0.491
Mof_H 	H 	0.9617	0.5833	0.8542	0.161
Mof_H 	H 	0.9355	0.5549	0.8653	0.432
Mof_C 	C 	0.9702	0.5487	0.8223	0.021
Mof_H 	H 	0.954	0.5588	0.8054	-0.012
Mof_H 	H 	0.9699	0.5233	0.8201	0.015
Mof_H 	H 	0.9937	0.5573	0.8178	0.004
Mof_C 	C 	0.7588	0.4767	0.82616	2.964
Mof_H 	H 	0.7779	0.4842	0.8405	-0.864
Mof_H 	H 	0.7373	0.4814	0.8378	-0.729
Mof_H 	H 	0.7608	0.4522	0.8218	-1.568
Mof_C 	C 	0.7621	0.5508	0.69478	-7.679
Mof_H 	H 	0.7815	0.5665	0.6946	2.225
Mof_H 	H 	0.7644	0.5345	0.676	2.778
Mof_H 	H 	0.7409	0.5638	0.692	1.501
Mof_C 	C 	0.26544	0.5107	0.76682	-2.576
Mof_H 	H 	0.2833	0.5276	0.7712	-8.768
Mof_C 	C 	0.24031	0.504	0.79197	0.393
Mof_C 	C 	0.21361	0.4618	0.75411	-8.384
Mof_H 	H 	0.1957	0.445	0.7497	3.271
Mof_C 	C 	0.23874	0.4685	0.72896	18.882
Mof_C 	C 	0.1456	0.469	0.89554	0.481
Mof_H 	H 	0.1679	0.4786	0.9017	-0.129
Mof_C 	C 	0.1202	0.4646	0.92092	-0.487
Mof_H 	H 	0.1249	0.4711	0.9446	0.186
Mof_C 	C 	0.0812	0.4413	0.8778	-0.319
Mof_H 	H 	0.059	0.4317	0.8716	-0.005
Mof_C 	C 	0.1066	0.4457	0.85242	-0.048
Mof_H 	H 	0.102	0.4391	0.8288	0
Mof_C 	C 	0.03059	0.4509	0.92181	0.12
Mof_C 	C 	0.01762	0.4491	0.88908	0.03
Mof_C 	C 	0.04076	0.4412	0.85857	-0.496
Mof_H 	H 	0.0383	0.4167	0.8542	0.162
Mof_H 	H 	0.0645	0.4451	0.8653	0.434
Mof_C 	C 	0.0298	0.4513	0.8223	0.025
Mof_H 	H 	0.046	0.4412	0.8054	-0.013
Mof_H 	H 	0.0301	0.4767	0.8201	0.014
Mof_H 	H 	0.0063	0.4427	0.8178	0.003
Mof_C 	C 	0.2412	0.5233	0.82616	2.963
Mof_H 	H 	0.2221	0.5158	0.8405	-0.863
Mof_H 	H 	0.2627	0.5186	0.8378	-0.729
Mof_H 	H 	0.2392	0.5478	0.8218	-1.568
Mof_C 	C 	0.2379	0.4492	0.69478	-7.678
Mof_H 	H 	0.2185	0.4335	0.6946	2.225
Mof_H 	H 	0.2356	0.4655	0.676	2.778
Mof_H 	H 	0.2591	0.4362	0.692	1.501
Mof_C 	C 	0.73456	0.5107	0.23318	-2.576
Mof_H 	H 	0.7167	0.5276	0.2288	-8.768
Mof_C 	C 	0.75969	0.504	0.20803	0.393
Mof_C 	C 	0.78639	0.4618	0.24589	-8.384
Mof_H 	H 	0.8043	0.445	0.2503	3.271
Mof_C 	C 	0.76126	0.4685	0.27104	18.882
Mof_C 	C 	0.8544	0.469	0.10446	0.483
Mof_H 	H 	0.8321	0.4786	0.0983	-0.13
Mof_C 	C 	0.8798	0.4646	0.07908	-0.488
Mof_H 	H 	0.8751	0.4711	0.0554	0.187
Mof_C 	C 	0.9188	0.4413	0.1222	-0.319
Mof_H 	H 	0.941	0.4317	0.1284	-0.005
Mof_C 	C 	0.8934	0.4457	0.14758	-0.047
Mof_H 	H 	0.898	0.4391	0.1712	-0
Mof_C 	C 	0.96941	0.4509	0.07819	0.121
Mof_C 	C 	0.98238	0.4491	0.11092	0.025
Mof_C 	C 	0.95924	0.4412	0.14143	-0.491
Mof_H 	H 	0.9617	0.4167	0.1458	0.161
Mof_H 	H 	0.9355	0.4451	0.1347	0.432
Mof_C 	C 	0.9702	0.4513	0.1777	0.021
Mof_H 	H 	0.954	0.4412	0.1946	-0.012
Mof_H 	H 	0.9699	0.4767	0.1799	0.015
Mof_H 	H 	0.9937	0.4427	0.1822	0.004
Mof_C 	C 	0.7588	0.5233	0.17384	2.963
Mof_H 	H 	0.7779	0.5158	0.1595	-0.863
Mof_H 	H 	0.7373	0.5186	0.1622	-0.729
Mof_H 	H 	0.7608	0.5478	0.1782	-1.567
Mof_C 	C 	0.7621	0.4492	0.30522	-7.678
Mof_H 	H 	0.7815	0.4335	0.3054	2.225
Mof_H 	H 	0.7644	0.4655	0.324	2.778
Mof_H 	H 	0.7409	0.4362	0.308	1.501
Mof_C 	C 	0.26544	0.23318	0.5107	-2.576
Mof_H 	H 	0.2833	0.2288	0.5276	-8.766
Mof_C 	C 	0.24031	0.20803	0.504	0.393
Mof_C 	C 	0.21361	0.24589	0.4618	-8.382
Mof_H 	H 	0.1957	0.2503	0.445	3.27
Mof_C 	C 	0.23874	0.27104	0.4685	18.878
Mof_C 	C 	0.1456	0.10446	0.469	0.483
Mof_H 	H 	0.1679	0.0983	0.4786	-0.13
Mof_C 	C 	0.1202	0.07908	0.4646	-0.488
Mof_H 	H 	0.1249	0.0554	0.4711	0.187
Mof_C 	C 	0.0812	0.1222	0.4413	-0.319
Mof_H 	H 	0.059	0.1284	0.4317	-0.005
Mof_C 	C 	0.1066	0.14758	0.4457	-0.048
Mof_H 	H 	0.102	0.1712	0.4391	0
Mof_C 	C 	0.03059	0.07819	0.4509	0.12
Mof_C 	C 	0.01762	0.11092	0.4491	0.03
Mof_C 	C 	0.04076	0.14143	0.4412	-0.496
Mof_H 	H 	0.0383	0.1458	0.4167	0.162
Mof_H 	H 	0.0645	0.1347	0.4451	0.434
Mof_C 	C 	0.0298	0.1777	0.4513	0.025
Mof_H 	H 	0.046	0.1946	0.4412	-0.013
Mof_H 	H 	0.0301	0.1799	0.4767	0.014
Mof_H 	H 	0.0063	0.1822	0.4427	0.003
Mof_C 	C 	0.2412	0.17384	0.5233	2.962
Mof_H 	H 	0.2221	0.1595	0.5158	-0.863
Mof_H 	H 	0.2627	0.1622	0.5186	-0.729
Mof_H 	H 	0.2392	0.1782	0.5478	-1.567
Mof_C 	C 	0.2379	0.30522	0.4492	-7.676
Mof_H 	H 	0.2185	0.3054	0.4335	2.225
Mof_H 	H 	0.2356	0.324	0.4655	2.777
Mof_H 	H 	0.2591	0.308	0.4362	1.5
Mof_C 	C 	0.73456	0.76682	0.5107	-2.577
Mof_H 	H 	0.7167	0.7712	0.5276	-8.771
Mof_C 	C 	0.75969	0.79197	0.504	0.393
Mof_C 	C 	0.78639	0.75411	0.4618	-8.386
Mof_H 	H 	0.8043	0.7497	0.445	3.272
Mof_C 	C 	0.76126	0.72896	0.4685	18.887
Mof_C 	C 	0.8544	0.89554	0.469	0.481
Mof_H 	H 	0.8321	0.9017	0.4786	-0.129
Mof_C 	C 	0.8798	0.92092	0.4646	-0.486
Mof_H 	H 	0.8751	0.9446	0.4711	0.186
Mof_C 	C 	0.9188	0.8778	0.4413	-0.319
Mof_H 	H 	0.941	0.8716	0.4317	-0.005
Mof_C 	C 	0.8934	0.85242	0.4457	-0.047
Mof_H 	H 	0.898	0.8288	0.4391	-0
Mof_C 	C 	0.96941	0.92181	0.4509	0.12
Mof_C 	C 	0.98238	0.88908	0.4491	0.025
Mof_C 	C 	0.95924	0.85857	0.4412	-0.491
Mof_H 	H 	0.9617	0.8542	0.4167	0.161
Mof_H 	H 	0.9355	0.8653	0.4451	0.432
Mof_C 	C 	0.9702	0.8223	0.4513	0.021
Mof_H 	H 	0.954	0.8054	0.4412	-0.012
Mof_H 	H 	0.9699	0.8201	0.4767	0.015
Mof_H 	H 	0.9937	0.8178	0.4427	0.004
Mof_C 	C 	0.7588	0.82616	0.5233	2.964
Mof_H 	H 	0.7779	0.8405	0.5158	-0.864
Mof_H 	H 	0.7373	0.8378	0.5186	-0.729
Mof_H 	H 	0.7608	0.8218	0.5478	-1.568
Mof_C 	C 	0.7621	0.69478	0.4492	-7.679
Mof_H 	H 	0.7815	0.6946	0.4335	2.226
Mof_H 	H 	0.7644	0.676	0.4655	2.778
Mof_H 	H 	0.7409	0.692	0.4362	1.501
Mof_C 	C 	0.26544	0.76682	0.4893	-2.576
Mof_H 	H 	0.2833	0.7712	0.4724	-8.768
Mof_C 	C 	0.24031	0.79197	0.496	0.393
Mof_C 	C 	0.21361	0.75411	0.5382	-8.384
Mof_H 	H 	0.1957	0.7497	0.555	3.271
Mof_C 	C 	0.23874	0.72896	0.5315	18.882
Mof_C 	C 	0.1456	0.89554	0.531	0.481
Mof_H 	H 	0.1679	0.9017	0.5214	-0.129
Mof_C 	C 	0.1202	0.92092	0.5354	-0.487
Mof_H 	H 	0.1249	0.9446	0.5289	0.186
Mof_C 	C 	0.0812	0.8778	0.5587	-0.319
Mof_H 	H 	0.059	0.8716	0.5683	-0.005
Mof_C 	C 	0.1066	0.85242	0.5543	-0.049
Mof_H 	H 	0.102	0.8288	0.5609	0
Mof_C 	C 	0.03059	0.92181	0.5491	0.12
Mof_C 	C 	0.01762	0.88908	0.5509	0.03
Mof_C 	C 	0.04076	0.85857	0.5588	-0.496
Mof_H 	H 	0.0383	0.8542	0.5833	0.162
Mof_H 	H 	0.0645	0.8653	0.5549	0.434
Mof_C 	C 	0.0298	0.8223	0.5487	0.025
Mof_H 	H 	0.046	0.8054	0.5588	-0.013
Mof_H 	H 	0.0301	0.8201	0.5233	0.014
Mof_H 	H 	0.0063	0.8178	0.5573	0.003
Mof_C 	C 	0.2412	0.82616	0.4767	2.963
Mof_H 	H 	0.2221	0.8405	0.4842	-0.863
Mof_H 	H 	0.2627	0.8378	0.4814	-0.729
Mof_H 	H 	0.2392	0.8218	0.4522	-1.568
Mof_C 	C 	0.2379	0.69478	0.5508	-7.678
Mof_H 	H 	0.2185	0.6946	0.5665	2.225
Mof_H 	H 	0.2356	0.676	0.5345	2.778
Mof_H 	H 	0.2591	0.692	0.5638	1.501
Mof_C 	C 	0.73456	0.23318	0.4893	-2.576
Mof_H 	H 	0.7167	0.2288	0.4724	-8.768
Mof_C 	C 	0.75969	0.20803	0.496	0.393
Mof_C 	C 	0.78639	0.24589	0.5382	-8.384
Mof_H 	H 	0.8043	0.2503	0.555	3.271
Mof_C 	C 	0.76126	0.27104	0.5315	18.882
Mof_C 	C 	0.8544	0.10446	0.531	0.483
Mof_H 	H 	0.8321	0.0983	0.5214	-0.13
Mof_C 	C 	0.8798	0.07908	0.5354	-0.488
Mof_H 	H 	0.8751	0.0554	0.5289	0.187
Mof_C 	C 	0.9188	0.1222	0.5587	-0.319
Mof_H 	H 	0.941	0.1284	0.5683	-0.005
Mof_C 	C 	0.8934	0.14758	0.5543	-0.047
Mof_H 	H 	0.898	0.1712	0.5609	-0
Mof_C 	C 	0.96941	0.07819	0.5491	0.121
Mof_C 	C 	0.98238	0.11092	0.5509	0.025
Mof_C 	C 	0.95924	0.14143	0.5588	-0.491
Mof_H 	H 	0.9617	0.1458	0.5833	0.161
Mof_H 	H 	0.9355	0.1347	0.5549	0.432
Mof_C 	C 	0.9702	0.1777	0.5487	0.021
Mof_H 	H 	0.954	0.1946	0.5588	-0.012
Mof_H 	H 	0.9699	0.1799	0.5233	0.015
Mof_H 	H 	0.9937	0.1822	0.5573	0.004
Mof_C 	C 	0.7588	0.17384	0.4767	2.963
Mof_H 	H 	0.7779	0.1595	0.4842	-0.863
Mof_H 	H 	0.7373	0.1622	0.4814	-0.729
Mof_H 	H 	0.7608	0.1782	0.4522	-1.567
Mof_C 	C 	0.7621	0.30522	0.5508	-7.678
Mof_H 	H 	0.7815	0.3054	0.5665	2.225
Mof_H 	H 	0.7644	0.324	0.5345	2.778
Mof_H 	H 	0.7409	0.308	0.5638	1.501
Mof_C 	C 	0.23318	0.4893	0.73456	-2.576
Mof_H 	H 	0.2288	0.4724	0.7167	-8.768
Mof_C 	C 	0.20803	0.496	0.75969	0.393
Mof_C 	C 	0.24589	0.5382	0.78639	-8.384
Mof_H 	H 	0.2503	0.555	0.8043	3.271
Mof_C 	C 	0.27104	0.5315	0.76126	18.882
Mof_C 	C 	0.10446	0.531	0.8544	0.483
Mof_H 	H 	0.0983	0.5214	0.8321	-0.13
Mof_C 	C 	0.07908	0.5354	0.8798	-0.488
Mof_H 	H 	0.0554	0.5289	0.8751	0.187
Mof_C 	C 	0.1222	0.5587	0.9188	-0.319
Mof_H 	H 	0.1284	0.5683	0.941	-0.005
Mof_C 	C 	0.14758	0.5543	0.8934	-0.047
Mof_H 	H 	0.1712	0.5609	0.898	-0
Mof_C 	C 	0.07819	0.5491	0.96941	0.121
Mof_C 	C 	0.11092	0.5509	0.98238	0.025
Mof_C 	C 	0.14143	0.5588	0.95924	-0.491
Mof_H 	H 	0.1458	0.5833	0.9617	0.161
Mof_H 	H 	0.1347	0.5549	0.9355	0.432
Mof_C 	C 	0.1777	0.5487	0.9702	0.021
Mof_H 	H 	0.1946	0.5588	0.954	-0.012
Mof_H 	H 	0.1799	0.5233	0.9699	0.015
Mof_H 	H 	0.1822	0.5573	0.9937	0.004
Mof_C 	C 	0.17384	0.4767	0.7588	2.963
Mof_H 	H 	0.1595	0.4842	0.7779	-0.863
Mof_H 	H 	0.1622	0.4814	0.7373	-0.729
Mof_H 	H 	0.1782	0.4522	0.7608	-1.567
Mof_C 	C 	0.30522	0.5508	0.7621	-7.678
Mof_H 	H 	0.3054	0.5665	0.7815	2.225
Mof_H 	H 	0.324	0.5345	0.7644	2.778
Mof_H 	H 	0.308	0.5638	0.7409	1.501
Mof_C 	C 	0.76682	0.4893	0.26544	-2.576
Mof_H 	H 	0.7712	0.4724	0.2833	-8.768
Mof_C 	C 	0.79197	0.496	0.24031	0.393
Mof_C 	C 	0.75411	0.5382	0.21361	-8.384
Mof_H 	H 	0.7497	0.555	0.1957	3.271
Mof_C 	C 	0.72896	0.5315	0.23874	18.882
Mof_C 	C 	0.89554	0.531	0.1456	0.481
Mof_H 	H 	0.9017	0.5214	0.1679	-0.129
Mof_C 	C 	0.92092	0.5354	0.1202	-0.487
Mof_H 	H 	0.9446	0.5289	0.1249	0.186
Mof_C 	C 	0.8778	0.5587	0.0812	-0.319
Mof_H 	H 	0.8716	0.5683	0.059	-0.005
Mof_C 	C 	0.85242	0.5543	0.1066	-0.049
Mof_H 	H 	0.8288	0.5609	0.102	0
Mof_C 	C 	0.92181	0.5491	0.03059	0.12
Mof_C 	C 	0.88908	0.5509	0.01762	0.03
Mof_C 	C 	0.85857	0.5588	0.04076	-0.496
Mof_H 	H 	0.8542	0.5833	0.0383	0.162
Mof_H 	H 	0.8653	0.5549	0.0645	0.434
Mof_C 	C 	0.8223	0.5487	0.0298	0.025
Mof_H 	H 	0.8054	0.5588	0.046	-0.013
Mof_H 	H 	0.8201	0.5233	0.0301	0.014
Mof_H 	H 	0.8178	0.5573	0.0063	0.003
Mof_C 	C 	0.82616	0.4767	0.2412	2.963
Mof_H 	H 	0.8405	0.4842	0.2221	-0.863
Mof_H 	H 	0.8378	0.4814	0.2627	-0.729
Mof_H 	H 	0.8218	0.4522	0.2392	-1.568
Mof_C 	C 	0.69478	0.5508	0.2379	-7.678
Mof_H 	H 	0.6946	0.5665	0.2185	2.225
Mof_H 	H 	0.676	0.5345	0.2356	2.778
Mof_H 	H 	0.692	0.5638	0.2591	1.501
Mof_C 	C 	0.76682	0.5107	0.73456	-2.577
Mof_H 	H 	0.7712	0.5276	0.7167	-8.771
Mof_C 	C 	0.79197	0.504	0.75969	0.393
Mof_C 	C 	0.75411	0.4618	0.78639	-8.386
Mof_H 	H 	0.7497	0.445	0.8043	3.272
Mof_C 	C 	0.72896	0.4685	0.76126	18.887
Mof_C 	C 	0.89554	0.469	0.8544	0.481
Mof_H 	H 	0.9017	0.4786	0.8321	-0.129
Mof_C 	C 	0.92092	0.4646	0.8798	-0.486
Mof_H 	H 	0.9446	0.4711	0.8751	0.186
Mof_C 	C 	0.8778	0.4413	0.9188	-0.319
Mof_H 	H 	0.8716	0.4317	0.941	-0.005
Mof_C 	C 	0.85242	0.4457	0.8934	-0.047
Mof_H 	H 	0.8288	0.4391	0.898	-0
Mof_C 	C 	0.92181	0.4509	0.96941	0.12
Mof_C 	C 	0.88908	0.4491	0.98238	0.025
Mof_C 	C 	0.85857	0.4412	0.95924	-0.491
Mof_H 	H 	0.8542	0.4167	0.9617	0.161
Mof_H 	H 	0.8653	0.4451	0.9355	0.432
Mof_C 	C 	0.8223	0.4513	0.9702	0.021
Mof_H 	H 	0.8054	0.4412	0.954	-0.012
Mof_H 	H 	0.8201	0.4767	0.9699	0.015
Mof_H 	H 	0.8178	0.4427	0.9937	0.004
Mof_C 	C 	0.82616	0.5233	0.7588	2.964
Mof_H 	H 	0.8405	0.5158	0.7779	-0.864
Mof_H 	H 	0.8378	0.5186	0.7373	-0.729
Mof_H 	H 	0.8218	0.5478	0.7608	-1.568
Mof_C 	C 	0.69478	0.4492	0.7621	-7.679
Mof_H 	H 	0.6946	0.4335	0.7815	2.226
Mof_H 	H 	0.676	0.4655	0.7644	2.778
Mof_H 	H 	0.692	0.4362	0.7409	1.501
Mof_C 	C 	0.23318	0.5107	0.26544	-2.576
Mof_H 	H 	0.2288	0.5276	0.2833	-8.766
Mof_C 	C 	0.20803	0.504	0.24031	0.393
Mof_C 	C 	0.24589	0.4618	0.21361	-8.382
Mof_H 	H 	0.2503	0.445	0.1957	3.27
Mof_C 	C 	0.27104	0.4685	0.23874	18.878
Mof_C 	C 	0.10446	0.469	0.1456	0.483
Mof_H 	H 	0.0983	0.4786	0.1679	-0.13
Mof_C 	C 	0.07908	0.4646	0.1202	-0.488
Mof_H 	H 	0.0554	0.4711	0.1249	0.187
Mof_C 	C 	0.1222	0.4413	0.0812	-0.319
Mof_H 	H 	0.1284	0.4317	0.059	-0.005
Mof_C 	C 	0.14758	0.4457	0.1066	-0.048
Mof_H 	H 	0.1712	0.4391	0.102	0
Mof_C 	C 	0.07819	0.4509	0.03059	0.12
Mof_C 	C 	0.11092	0.4491	0.01762	0.03
Mof_C 	C 	0.14143	0.4412	0.04076	-0.496
Mof_H 	H 	0.1458	0.4167	0.0383	0.162
Mof_H 	H 	0.1347	0.4451	0.0645	0.434
Mof_C 	C 	0.1777	0.4513	0.0298	0.025
Mof_H 	H 	0.1946	0.4412	0.046	-0.013
Mof_H 	H 	0.1799	0.4767	0.0301	0.014
Mof_H 	H 	0.1822	0.4427	0.0063	0.003
Mof_C 	C 	0.17384	0.5233	0.2412	2.962
Mof_H 	H 	0.1595	0.5158	0.2221	-0.863
Mof_H 	H 	0.1622	0.5186	0.2627	-0.729
Mof_H 	H 	0.1782	0.5478	0.2392	-1.567
Mof_C 	C 	0.30522	0.4492	0.2379	-7.676
Mof_H 	H 	0.3054	0.4335	0.2185	2.225
Mof_H 	H 	0.324	0.4655	0.2356	2.777
Mof_H 	H 	0.308	0.4362	0.2591	1.5
Mof_C 	C 	0.4893	0.26544	0.76682	-2.576
Mof_H 	H 	0.4724	0.2833	0.7712	-8.768
Mof_C 	C 	0.496	0.24031	0.79197	0.393
Mof_C 	C 	0.5382	0.21361	0.75411	-8.384
Mof_H 	H 	0.555	0.1957	0.7497	3.271
Mof_C 	C 	0.5315	0.23874	0.72896	18.882
Mof_C 	C 	0.531	0.1456	0.89554	0.481
Mof_H 	H 	0.5214	0.1679	0.9017	-0.129
Mof_C 	C 	0.5354	0.1202	0.92092	-0.487
Mof_H 	H 	0.5289	0.1249	0.9446	0.186
Mof_C 	C 	0.5587	0.0812	0.8778	-0.319
Mof_H 	H 	0.5683	0.059	0.8716	-0.005
Mof_C 	C 	0.5543	0.1066	0.85242	-0.049
Mof_H 	H 	0.5609	0.102	0.8288	0
Mof_C 	C 	0.5491	0.03059	0.92181	0.12
Mof_C 	C 	0.5509	0.01762	0.88908	0.03
Mof_C 	C 	0.5588	0.04076	0.85857	-0.496
Mof_H 	H 	0.5833	0.0383	0.8542	0.162
Mof_H 	H 	0.5549	0.0645	0.8653	0.434
Mof_C 	C 	0.5487	0.0298	0.8223	0.025
Mof_H 	H 	0.5588	0.046	0.8054	-0.013
Mof_H 	H 	0.5233	0.0301	0.8201	0.014
Mof_H 	H 	0.5573	0.0063	0.8178	0.003
Mof_C 	C 	0.4767	0.2412	0.82616	2.963
Mof_H 	H 	0.4842	0.2221	0.8405	-0.863
Mof_H 	H 	0.4814	0.2627	0.8378	-0.729
Mof_H 	H 	0.4522	0.2392	0.8218	-1.568
Mof_C 	C 	0.5508	0.2379	0.69478	-7.678
Mof_H 	H 	0.5665	0.2185	0.6946	2.225
Mof_H 	H 	0.5345	0.2356	0.676	2.778
Mof_H 	H 	0.5638	0.2591	0.692	1.501
Mof_C 	C 	0.4893	0.73456	0.23318	-2.576
Mof_H 	H 	0.4724	0.7167	0.2288	-8.768
Mof_C 	C 	0.496	0.75969	0.20803	0.393
Mof_C 	C 	0.5382	0.78639	0.24589	-8.384
Mof_H 	H 	0.555	0.8043	0.2503	3.271
Mof_C 	C 	0.5315	0.76126	0.27104	18.882
Mof_C 	C 	0.531	0.8544	0.10446	0.483
Mof_H 	H 	0.5214	0.8321	0.0983	-0.13
Mof_C 	C 	0.5354	0.8798	0.07908	-0.488
Mof_H 	H 	0.5289	0.8751	0.0554	0.187
Mof_C 	C 	0.5587	0.9188	0.1222	-0.319
Mof_H 	H 	0.5683	0.941	0.1284	-0.005
Mof_C 	C 	0.5543	0.8934	0.14758	-0.047
Mof_H 	H 	0.5609	0.898	0.1712	-0
Mof_C 	C 	0.5491	0.96941	0.07819	0.121
Mof_C 	C 	0.5509	0.98238	0.11092	0.025
Mof_C 	C 	0.5588	0.95924	0.14143	-0.491
Mof_H 	H 	0.5833	0.9617	0.1458	0.161
Mof_H 	H 	0.5549	0.9355	0.1347	0.432
Mof_C 	C 	0.5487	0.9702	0.1777	0.021
Mof_H 	H 	0.5588	0.954	0.1946	-0.012
Mof_H 	H 	0.5233	0.9699	0.1799	0.015
Mof_H 	H 	0.5573	0.9937	0.1822	0.004
Mof_C 	C 	0.4767	0.7588	0.17384	2.963
Mof_H 	H 	0.4842	0.7779	0.1595	-0.863
Mof_H 	H 	0.4814	0.7373	0.1622	-0.729
Mof_H 	H 	0.4522	0.7608	0.1782	-1.567
Mof_C 	C 	0.5508	0.7621	0.30522	-7.678
Mof_H 	H 	0.5665	0.7815	0.3054	2.225
Mof_H 	H 	0.5345	0.7644	0.324	2.778
Mof_H 	H 	0.5638	0.7409	0.308	1.501
Mof_C 	C 	0.5107	0.26544	0.23318	-2.576
Mof_H 	H 	0.5276	0.2833	0.2288	-8.766
Mof_C 	C 	0.504	0.24031	0.20803	0.393
Mof_C 	C 	0.4618	0.21361	0.24589	-8.382
Mof_H 	H 	0.445	0.1957	0.2503	3.27
Mof_C 	C 	0.4685	0.23874	0.27104	18.878
Mof_C 	C 	0.469	0.1456	0.10446	0.483
Mof_H 	H 	0.4786	0.1679	0.0983	-0.13
Mof_C 	C 	0.4646	0.1202	0.07908	-0.488
Mof_H 	H 	0.4711	0.1249	0.0554	0.187
Mof_C 	C 	0.4413	0.0812	0.1222	-0.319
Mof_H 	H 	0.4317	0.059	0.1284	-0.005
Mof_C 	C 	0.4457	0.1066	0.14758	-0.048
Mof_H 	H 	0.4391	0.102	0.1712	0
Mof_C 	C 	0.4509	0.03059	0.07819	0.12
Mof_C 	C 	0.4491	0.01762	0.11092	0.03
Mof_C 	C 	0.4412	0.04076	0.14143	-0.496
Mof_H 	H 	0.4167	0.0383	0.1458	0.162
Mof_H 	H 	0.4451	0.0645	0.1347	0.434
Mof_C 	C 	0.4513	0.0298	0.1777	0.025
Mof_H 	H 	0.4412	0.046	0.1946	-0.013
Mof_H 	H 	0.4767	0.0301	0.1799	0.014
Mof_H 	H 	0.4427	0.0063	0.1822	0.003
Mof_C 	C 	0.5233	0.2412	0.17384	2.962
Mof_H 	H 	0.5158	0.2221	0.1595	-0.863
Mof_H 	H 	0.5186	0.2627	0.1622	-0.729
Mof_H 	H 	0.5478	0.2392	0.1782	-1.567
Mof_C 	C 	0.4492	0.2379	0.30522	-7.676
Mof_H 	H 	0.4335	0.2185	0.3054	2.225
Mof_H 	H 	0.4655	0.2356	0.324	2.777
Mof_H 	H 	0.4362	0.2591	0.308	1.5
Mof_C 	C 	0.5107	0.73456	0.76682	-2.577
Mof_H 	H 	0.5276	0.7167	0.7712	-8.771
Mof_C 	C 	0.504	0.75969	0.79197	0.393
Mof_C 	C 	0.4618	0.78639	0.75411	-8.386
Mof_H 	H 	0.445	0.8043	0.7497	3.272
Mof_C 	C 	0.4685	0.76126	0.72896	18.887
Mof_C 	C 	0.469	0.8544	0.89554	0.481
Mof_H 	H 	0.4786	0.8321	0.9017	-0.129
Mof_C 	C 	0.4646	0.8798	0.92092	-0.486
Mof_H 	H 	0.4711	0.8751	0.9446	0.186
Mof_C 	C 	0.4413	0.9188	0.8778	-0.319
Mof_H 	H 	0.4317	0.941	0.8716	-0.005
Mof_C 	C 	0.4457	0.8934	0.85242	-0.047
Mof_H 	H 	0.4391	0.898	0.8288	-0
Mof_C 	C 	0.4509	0.96941	0.92181	0.12
Mof_C 	C 	0.4491	0.98238	0.88908	0.025
Mof_C 	C 	0.4412	0.95924	0.85857	-0.491
Mof_H 	H 	0.4167	0.9617	0.8542	0.161
Mof_H 	H 	0.4451	0.9355	0.8653	0.432
Mof_C 	C 	0.4513	0.9702	0.8223	0.021
Mof_H 	H 	0.4412	0.954	0.8054	-0.012
Mof_H 	H 	0.4767	0.9699	0.8201	0.015
Mof_H 	H 	0.4427	0.9937	0.8178	0.004
Mof_C 	C 	0.5233	0.7588	0.82616	2.964
Mof_H 	H 	0.5158	0.7779	0.8405	-0.864
Mof_H 	H 	0.5186	0.7373	0.8378	-0.729
Mof_H 	H 	0.5478	0.7608	0.8218	-1.568
Mof_C 	C 	0.4492	0.7621	0.69478	-7.679
Mof_H 	H 	0.4335	0.7815	0.6946	2.226
Mof_H 	H 	0.4655	0.7644	0.676	2.778
Mof_H 	H 	0.4362	0.7409	0.692	1.501
Mof_C 	C 	0.76682	0.73456	0.5107	-2.577
Mof_H 	H 	0.7712	0.7167	0.5276	-8.771
Mof_C 	C 	0.79197	0.75969	0.504	0.393
Mof_C 	C 	0.75411	0.78639	0.4618	-8.386
Mof_H 	H 	0.7497	0.8043	0.445	3.272
Mof_C 	C 	0.72896	0.76126	0.4685	18.887
Mof_C 	C 	0.89554	0.8544	0.469	0.481
Mof_H 	H 	0.9017	0.8321	0.4786	-0.129
Mof_C 	C 	0.92092	0.8798	0.4646	-0.486
Mof_H 	H 	0.9446	0.8751	0.4711	0.186
Mof_C 	C 	0.8778	0.9188	0.4413	-0.319
Mof_H 	H 	0.8716	0.941	0.4317	-0.005
Mof_C 	C 	0.85242	0.8934	0.4457	-0.047
Mof_H 	H 	0.8288	0.898	0.4391	-0
Mof_C 	C 	0.92181	0.96941	0.4509	0.12
Mof_C 	C 	0.88908	0.98238	0.4491	0.025
Mof_C 	C 	0.85857	0.95924	0.4412	-0.491
Mof_H 	H 	0.8542	0.9617	0.4167	0.161
Mof_H 	H 	0.8653	0.9355	0.4451	0.432
Mof_C 	C 	0.8223	0.9702	0.4513	0.021
Mof_H 	H 	0.8054	0.954	0.4412	-0.012
Mof_H 	H 	0.8201	0.9699	0.4767	0.015
Mof_H 	H 	0.8178	0.9937	0.4427	0.004
Mof_C 	C 	0.82616	0.7588	0.5233	2.964
Mof_H 	H 	0.8405	0.7779	0.5158	-0.864
Mof_H 	H 	0.8378	0.7373	0.5186	-0.729
Mof_H 	H 	0.8218	0.7608	0.5478	-1.568
Mof_C 	C 	0.69478	0.7621	0.4492	-7.679
Mof_H 	H 	0.6946	0.7815	0.4335	2.226
Mof_H 	H 	0.676	0.7644	0.4655	2.778
Mof_H 	H 	0.692	0.7409	0.4362	1.501
Mof_C 	C 	0.23318	0.26544	0.5107	-2.576
Mof_H 	H 	0.2288	0.2833	0.5276	-8.766
Mof_C 	C 	0.20803	0.24031	0.504	0.393
Mof_C 	C 	0.24589	0.21361	0.4618	-8.382
Mof_H 	H 	0.2503	0.1957	0.445	3.27
Mof_C 	C 	0.27104	0.23874	0.4685	18.878
Mof_C 	C 	0.10446	0.1456	0.469	0.483
Mof_H 	H 	0.0983	0.1679	0.4786	-0.13
Mof_C 	C 	0.07908	0.1202	0.4646	-0.488
Mof_H 	H 	0.0554	0.1249	0.4711	0.187
Mof_C 	C 	0.1222	0.0812	0.4413	-0.319
Mof_H 	H 	0.1284	0.059	0.4317	-0.005
Mof_C 	C 	0.14758	0.1066	0.4457	-0.048
Mof_H 	H 	0.1712	0.102	0.4391	0
Mof_C 	C 	0.07819	0.03059	0.4509	0.12
Mof_C 	C 	0.11092	0.01762	0.4491	0.03
Mof_C 	C 	0.14143	0.04076	0.4412	-0.496
Mof_H 	H 	0.1458	0.0383	0.4167	0.162
Mof_H 	H 	0.1347	0.0645	0.4451	0.434
Mof_C 	C 	0.1777	0.0298	0.4513	0.025
Mof_H 	H 	0.1946	0.046	0.4412	-0.013
Mof_H 	H 	0.1799	0.0301	0.4767	0.014
Mof_H 	H 	0.1822	0.0063	0.4427	0.003
Mof_C 	C 	0.17384	0.2412	0.5233	2.962
Mof_H 	H 	0.1595	0.2221	0.5158	-0.863
Mof_H 	H 	0.1622	0.2627	0.5186	-0.729
Mof_H 	H 	0.1782	0.2392	0.5478	-1.567
Mof_C 	C 	0.30522	0.2379	0.4492	-7.676
Mof_H 	H 	0.3054	0.2185	0.4335	2.225
Mof_H 	H 	0.324	0.2356	0.4655	2.777
Mof_H 	H 	0.308	0.2591	0.4362	1.5
Mof_C 	C 	0.23318	0.73456	0.4893	-2.576
Mof_H 	H 	0.2288	0.7167	0.4724	-8.768
Mof_C 	C 	0.20803	0.75969	0.496	0.393
Mof_C 	C 	0.24589	0.78639	0.5382	-8.384
Mof_H 	H 	0.2503	0.8043	0.555	3.271
Mof_C 	C 	0.27104	0.76126	0.5315	18.882
Mof_C 	C 	0.10446	0.8544	0.531	0.483
Mof_H 	H 	0.0983	0.8321	0.5214	-0.13
Mof_C 	C 	0.07908	0.8798	0.5354	-0.488
Mof_H 	H 	0.0554	0.8751	0.5289	0.187
Mof_C 	C 	0.1222	0.9188	0.5587	-0.319
Mof_H 	H 	0.1284	0.941	0.5683	-0.005
Mof_C 	C 	0.14758	0.8934	0.5543	-0.047
Mof_H 	H 	0.1712	0.898	0.5609	-0
Mof_C 	C 	0.07819	0.96941	0.5491	0.121
Mof_C 	C 	0.11092	0.98238	0.5509	0.025
Mof_C 	C 	0.14143	0.95924	0.5588	-0.491
Mof_H 	H 	0.1458	0.9617	0.5833	0.161
Mof_H 	H 	0.1347	0.9355	0.5549	0.432
Mof_C 	C 	0.1777	0.9702	0.5487	0.021
Mof_H 	H 	0.1946	0.954	0.5588	-0.012
Mof_H 	H 	0.1799	0.9699	0.5233	0.015
Mof_H 	H 	0.1822	0.9937	0.5573	0.004
Mof_C 	C 	0.17384	0.7588	0.4767	2.963
Mof_H 	H 	0.1595	0.7779	0.4842	-0.863
Mof_H 	H 	0.1622	0.7373	0.4814	-0.729
Mof_H 	H 	0.1782	0.7608	0.4522	-1.567
Mof_C 	C 	0.30522	0.7621	0.5508	-7.678
Mof_H 	H 	0.3054	0.7815	0.5665	2.225
Mof_H 	H 	0.324	0.7644	0.5345	2.778
Mof_H 	H 	0.308	0.7409	0.5638	1.501
Mof_C 	C 	0.76682	0.26544	0.4893	-2.576
Mof_H 	H 	0.7712	0.2833	0.4724	-8.768
Mof_C 	C 	0.79197	0.24031	0.496	0.393
Mof_C 	C 	0.75411	0.21361	0.5382	-8.384
Mof_H 	H 	0.7497	0.1957	0.555	3.271
Mof_C 	C 	0.72896	0.23874	0.5315	18.882
Mof_C 	C 	0.89554	0.1456	0.531	0.481
Mof_H 	H 	0.9017	0.1679	0.5214	-0.129
Mof_C 	C 	0.92092	0.1202	0.5354	-0.487
Mof_H 	H 	0.9446	0.1249	0.5289	0.186
Mof_C 	C 	0.8778	0.0812	0.5587	-0.319
Mof_H 	H 	0.8716	0.059	0.5683	-0.005
Mof_C 	C 	0.85242	0.1066	0.5543	-0.049
Mof_H 	H 	0.8288	0.102	0.5609	0
Mof_C 	C 	0.92181	0.03059	0.5491	0.12
Mof_C 	C 	0.88908	0.01762	0.5509	0.03
Mof_C 	C 	0.85857	0.04076	0.5588	-0.496
Mof_H 	H 	0.8542	0.0383	0.5833	0.162
Mof_H 	H 	0.8653	0.0645	0.5549	0.434
Mof_C 	C 	0.8223	0.0298	0.5487	0.025
Mof_H 	H 	0.8054	0.046	0.5588	-0.013
Mof_H 	H 	0.8201	0.0301	0.5233	0.014
Mof_H 	H 	0.8178	0.0063	0.5573	0.003
Mof_C 	C 	0.82616	0.2412	0.4767	2.963
Mof_H 	H 	0.8405	0.2221	0.4842	-0.863
Mof_H 	H 	0.8378	0.2627	0.4814	-0.729
Mof_H 	H 	0.8218	0.2392	0.4522	-1.568
Mof_C 	C 	0.69478	0.2379	0.5508	-7.678
Mof_H 	H 	0.6946	0.2185	0.5665	2.225
Mof_H 	H 	0.676	0.2356	0.5345	2.778
Mof_H 	H 	0.692	0.2591	0.5638	1.501
Mof_C 	C 	0.5107	0.76682	0.73456	-2.577
Mof_H 	H 	0.5276	0.7712	0.7167	-8.771
Mof_C 	C 	0.504	0.79197	0.75969	0.393
Mof_C 	C 	0.4618	0.75411	0.78639	-8.386
Mof_H 	H 	0.445	0.7497	0.8043	3.272
Mof_C 	C 	0.4685	0.72896	0.76126	18.887
Mof_C 	C 	0.469	0.89554	0.8544	0.481
Mof_H 	H 	0.4786	0.9017	0.8321	-0.129
Mof_C 	C 	0.4646	0.92092	0.8798	-0.486
Mof_H 	H 	0.4711	0.9446	0.8751	0.186
Mof_C 	C 	0.4413	0.8778	0.9188	-0.319
Mof_H 	H 	0.4317	0.8716	0.941	-0.005
Mof_C 	C 	0.4457	0.85242	0.8934	-0.047
Mof_H 	H 	0.4391	0.8288	0.898	-0
Mof_C 	C 	0.4509	0.92181	0.96941	0.12
Mof_C 	C 	0.4491	0.88908	0.98238	0.025
Mof_C 	C 	0.4412	0.85857	0.95924	-0.491
Mof_H 	H 	0.4167	0.8542	0.9617	0.161
Mof_H 	H 	0.4451	0.8653	0.9355	0.432
Mof_C 	C 	0.4513	0.8223	0.9702	0.021
Mof_H 	H 	0.4412	0.8054	0.954	-0.012
Mof_H 	H 	0.4767	0.8201	0.9699	0.015
Mof_H 	H 	0.4427	0.8178	0.9937	0.004
Mof_C 	C 	0.5233	0.82616	0.7588	2.964
Mof_H 	H 	0.5158	0.8405	0.7779	-0.864
Mof_H 	H 	0.5186	0.8378	0.7373	-0.729
Mof_H 	H 	0.5478	0.8218	0.7608	-1.568
Mof_C 	C 	0.4492	0.69478	0.7621	-7.679
Mof_H 	H 	0.4335	0.6946	0.7815	2.226
Mof_H 	H 	0.4655	0.676	0.7644	2.778
Mof_H 	H 	0.4362	0.692	0.7409	1.501
Mof_C 	C 	0.5107	0.23318	0.26544	-2.576
Mof_H 	H 	0.5276	0.2288	0.2833	-8.766
Mof_C 	C 	0.504	0.20803	0.24031	0.393
Mof_C 	C 	0.4618	0.24589	0.21361	-8.382
Mof_H 	H 	0.445	0.2503	0.1957	3.27
Mof_C 	C 	0.4685	0.27104	0.23874	18.878
Mof_C 	C 	0.469	0.10446	0.1456	0.483
Mof_H 	H 	0.4786	0.0983	0.1679	-0.13
Mof_C 	C 	0.4646	0.07908	0.1202	-0.488
Mof_H 	H 	0.4711	0.0554	0.1249	0.187
Mof_C 	C 	0.4413	0.1222	0.0812	-0.319
Mof_H 	H 	0.4317	0.1284	0.059	-0.005
Mof_C 	C 	0.4457	0.14758	0.1066	-0.048
Mof_H 	H 	0.4391	0.1712	0.102	0
Mof_C 	C 	0.4509	0.07819	0.03059	0.12
Mof_C 	C 	0.4491	0.11092	0.01762	0.03
Mof_C 	C 	0.4412	0.14143	0.04076	-0.496
Mof_H 	H 	0.4167	0.1458	0.0383	0.162
Mof_H 	H 	0.4451	0.1347	0.0645	0.434
Mof_C 	C 	0.4513	0.1777	0.0298	0.025
Mof_H 	H 	0.4412	0.1946	0.046	-0.013
Mof_H 	H 	0.4767	0.1799	0.0301	0.014
Mof_H 	H 	0.4427	0.1822	0.0063	0.003
Mof_C 	C 	0.5233	0.17384	0.2412	2.962
Mof_H 	H 	0.5158	0.1595	0.2221	-0.863
Mof_H 	H 	0.5186	0.1622	0.2627	-0.729
Mof_H 	H 	0.5478	0.1782	0.2392	-1.567
Mof_C 	C 	0.4492	0.30522	0.2379	-7.676
Mof_H 	H 	0.4335	0.3054	0.2185	2.225
Mof_H 	H 	0.4655	0.324	0.2356	2.777
Mof_H 	H 	0.4362	0.308	0.2591	1.5
Mof_C 	C 	0.4893	0.23318	0.73456	-2.576
Mof_H 	H 	0.4724	0.2288	0.7167	-8.768
Mof_C 	C 	0.496	0.20803	0.75969	0.393
Mof_C 	C 	0.5382	0.24589	0.78639	-8.384
Mof_H 	H 	0.555	0.2503	0.8043	3.271
Mof_C 	C 	0.5315	0.27104	0.76126	18.882
Mof_C 	C 	0.531	0.10446	0.8544	0.483
Mof_H 	H 	0.5214	0.0983	0.8321	-0.13
Mof_C 	C 	0.5354	0.07908	0.8798	-0.488
Mof_H 	H 	0.5289	0.0554	0.8751	0.187
Mof_C 	C 	0.5587	0.1222	0.9188	-0.319
Mof_H 	H 	0.5683	0.1284	0.941	-0.005
Mof_C 	C 	0.5543	0.14758	0.8934	-0.047
Mof_H 	H 	0.5609	0.1712	0.898	-0
Mof_C 	C 	0.5491	0.07819	0.96941	0.121
Mof_C 	C 	0.5509	0.11092	0.98238	0.025
Mof_C 	C 	0.5588	0.14143	0.95924	-0.491
Mof_H 	H 	0.5833	0.1458	0.9617	0.161
Mof_H 	H 	0.5549	0.1347	0.9355	0.432
Mof_C 	C 	0.5487	0.1777	0.9702	0.021
Mof_H 	H 	0.5588	0.1946	0.954	-0.012
Mof_H 	H 	0.5233	0.1799	0.9699	0.015
Mof_H 	H 	0.5573	0.1822	0.9937	0.004
Mof_C 	C 	0.4767	0.17384	0.7588	2.963
Mof_H 	H 	0.4842	0.1595	0.7779	-0.863
Mof_H 	H 	0.4814	0.1622	0.7373	-0.729
Mof_H 	H 	0.4522	0.1782	0.7608	-1.567
Mof_C 	C 	0.5508	0.30522	0.7621	-7.678
Mof_H 	H 	0.5665	0.3054	0.7815	2.225
Mof_H 	H 	0.5345	0.324	0.7644	2.778
Mof_H 	H 	0.5638	0.308	0.7409	1.501
Mof_C 	C 	0.4893	0.76682	0.26544	-2.576
Mof_H 	H 	0.4724	0.7712	0.2833	-8.768
Mof_C 	C 	0.496	0.79197	0.24031	0.393
Mof_C 	C 	0.5382	0.75411	0.21361	-8.384
Mof_H 	H 	0.555	0.7497	0.1957	3.271
Mof_C 	C 	0.5315	0.72896	0.23874	18.882
Mof_C 	C 	0.531	0.89554	0.1456	0.481
Mof_H 	H 	0.5214	0.9017	0.1679	-0.129
Mof_C 	C 	0.5354	0.92092	0.1202	-0.487
Mof_H 	H 	0.5289	0.9446	0.1249	0.186
Mof_C 	C 	0.5587	0.8778	0.0812	-0.319
Mof_H 	H 	0.5683	0.8716	0.059	-0.005
Mof_C 	C 	0.5543	0.85242	0.1066	-0.049
Mof_H 	H 	0.5609	0.8288	0.102	0
Mof_C 	C 	0.5491	0.92181	0.03059	0.12
Mof_C 	C 	0.5509	0.88908	0.01762	0.03
Mof_C 	C 	0.5588	0.85857	0.04076	-0.496
Mof_H 	H 	0.5833	0.8542	0.0383	0.162
Mof_H 	H 	0.5549	0.8653	0.0645	0.434
Mof_C 	C 	0.5487	0.8223	0.0298	0.025
Mof_H 	H 	0.5588	0.8054	0.046	-0.013
Mof_H 	H 	0.5233	0.8201	0.0301	0.014
Mof_H 	H 	0.5573	0.8178	0.0063	0.003
Mof_C 	C 	0.4767	0.82616	0.2412	2.963
Mof_H 	H 	0.4842	0.8405	0.2221	-0.863
Mof_H 	H 	0.4814	0.8378	0.2627	-0.729
Mof_H 	H 	0.4522	0.8218	0.2392	-1.568
Mof_C 	C 	0.5508	0.69478	0.2379	-7.678
Mof_H 	H 	0.5665	0.6946	0.2185	2.225
Mof_H 	H 	0.5345	0.676	0.2356	2.778
Mof_H 	H 	0.5638	0.692	0.2591	1.501
Mof_C 	C 	0.73456	0.5107	0.76682	-2.577
Mof_H 	H 	0.7167	0.5276	0.7712	-8.771
Mof_C 	C 	0.75969	0.504	0.79197	0.393
Mof_C 	C 	0.78639	0.4618	0.75411	-8.386
Mof_H 	H 	0.8043	0.445	0.7497	3.272
Mof_C 	C 	0.76126	0.4685	0.72896	18.887
Mof_C 	C 	0.8544	0.469	0.89554	0.481
Mof_H 	H 	0.8321	0.4786	0.9017	-0.129
Mof_C 	C 	0.8798	0.4646	0.92092	-0.486
Mof_H 	H 	0.8751	0.4711	0.9446	0.186
Mof_C 	C 	0.9188	0.4413	0.8778	-0.319
Mof_H 	H 	0.941	0.4317	0.8716	-0.005
Mof_C 	C 	0.8934	0.4457	0.85242	-0.047
Mof_H 	H 	0.898	0.4391	0.8288	-0
Mof_C 	C 	0.96941	0.4509	0.92181	0.12
Mof_C 	C 	0.98238	0.4491	0.88908	0.025
Mof_C 	C 	0.95924	0.4412	0.85857	-0.491
Mof_H 	H 	0.9617	0.4167	0.8542	0.161
Mof_H 	H 	0.9355	0.4451	0.8653	0.432
Mof_C 	C 	0.9702	0.4513	0.8223	0.021
Mof_H 	H 	0.954	0.4412	0.8054	-0.012
Mof_H 	H 	0.9699	0.4767	0.8201	0.015
Mof_H 	H 	0.9937	0.4427	0.8178	0.004
Mof_C 	C 	0.7588	0.5233	0.82616	2.964
Mof_H 	H 	0.7779	0.5158	0.8405	-0.864
Mof_H 	H 	0.7373	0.5186	0.8378	-0.729
Mof_H 	H 	0.7608	0.5478	0.8218	-1.568
Mof_C 	C 	0.7621	0.4492	0.69478	-7.679
Mof_H 	H 	0.7815	0.4335	0.6946	2.226
Mof_H 	H 	0.7644	0.4655	0.676	2.778
Mof_H 	H 	0.7409	0.4362	0.692	1.501
Mof_C 	C 	0.26544	0.5107	0.23318	-2.576
Mof_H 	H 	0.2833	0.5276	0.2288	-8.766
Mof_C 	C 	0.24031	0.504	0.20803	0.393
Mof_C 	C 	0.21361	0.4618	0.24589	-8.382
Mof_H 	H 	0.1957	0.445	0.2503	3.27
Mof_C 	C 	0.23874	0.4685	0.27104	18.878
Mof_C 	C 	0.1456	0.469	0.10446	0.483
Mof_H 	H 	0.1679	0.4786	0.0983	-0.13
Mof_C 	C 	0.1202	0.4646	0.07908	-0.488
Mof_H 	H 	0.1249	0.4711	0.0554	0.187
Mof_C 	C 	0.0812	0.4413	0.1222	-0.319
Mof_H 	H 	0.059	0.4317	0.1284	-0.005
Mof_C 	C 	0.1066	0.4457	0.14758	-0.048
Mof_H 	H 	0.102	0.4391	0.1712	0
Mof_C 	C 	0.03059	0.4509	0.07819	0.12
Mof_C 	C 	0.01762	0.4491	0.11092	0.03
Mof_C 	C 	0.04076	0.4412	0.14143	-0.496
Mof_H 	H 	0.0383	0.4167	0.1458	0.162
Mof_H 	H 	0.0645	0.4451	0.1347	0.434
Mof_C 	C 	0.0298	0.4513	0.1777	0.025
Mof_H 	H 	0.046	0.4412	0.1946	-0.013
Mof_H 	H 	0.0301	0.4767	0.1799	0.014
Mof_H 	H 	0.0063	0.4427	0.1822	0.003
Mof_C 	C 	0.2412	0.5233	0.17384	2.962
Mof_H 	H 	0.2221	0.5158	0.1595	-0.863
Mof_H 	H 	0.2627	0.5186	0.1622	-0.729
Mof_H 	H 	0.2392	0.5478	0.1782	-1.567
Mof_C 	C 	0.2379	0.4492	0.30522	-7.676
Mof_H 	H 	0.2185	0.4335	0.3054	2.225
Mof_H 	H 	0.2356	0.4655	0.324	2.777
Mof_H 	H 	0.2591	0.4362	0.308	1.5
Mof_C 	C 	0.73456	0.4893	0.23318	-2.576
Mof_H 	H 	0.7167	0.4724	0.2288	-8.768
Mof_C 	C 	0.75969	0.496	0.20803	0.393
Mof_C 	C 	0.78639	0.5382	0.24589	-8.384
Mof_H 	H 	0.8043	0.555	0.2503	3.271
Mof_C 	C 	0.76126	0.5315	0.27104	18.882
Mof_C 	C 	0.8544	0.531	0.10446	0.483
Mof_H 	H 	0.8321	0.5214	0.0983	-0.13
Mof_C 	C 	0.8798	0.5354	0.07908	-0.488
Mof_H 	H 	0.8751	0.5289	0.0554	0.187
Mof_C 	C 	0.9188	0.5587	0.1222	-0.319
Mof_H 	H 	0.941	0.5683	0.1284	-0.005
Mof_C 	C 	0.8934	0.5543	0.14758	-0.047
Mof_H 	H 	0.898	0.5609	0.1712	-0
Mof_C 	C 	0.96941	0.5491	0.07819	0.121
Mof_C 	C 	0.98238	0.5509	0.11092	0.025
Mof_C 	C 	0.95924	0.5588	0.14143	-0.491
Mof_H 	H 	0.9617	0.5833	0.1458	0.161
Mof_H 	H 	0.9355	0.5549	0.1347	0.432
Mof_C 	C 	0.9702	0.5487	0.1777	0.021
Mof_H 	H 	0.954	0.5588	0.1946	-0.012
Mof_H 	H 	0.9699	0.5233	0.1799	0.015
Mof_H 	H 	0.9937	0.5573	0.1822	0.004
Mof_C 	C 	0.7588	0.4767	0.17384	2.963
Mof_H 	H 	0.7779	0.4842	0.1595	-0.863
Mof_H 	H 	0.7373	0.4814	0.1622	-0.729
Mof_H 	H 	0.7608	0.4522	0.1782	-1.567
Mof_C 	C 	0.7621	0.5508	0.30522	-7.678
Mof_H 	H 	0.7815	0.5665	0.3054	2.225
Mof_H 	H 	0.7644	0.5345	0.324	2.778
Mof_H 	H 	0.7409	0.5638	0.308	1.501
Mof_C 	C 	0.26544	0.4893	0.76682	-2.576
Mof_H 	H 	0.2833	0.4724	0.7712	-8.768
Mof_C 	C 	0.24031	0.496	0.79197	0.393
Mof_C 	C 	0.21361	0.5382	0.75411	-8.384
Mof_H 	H 	0.1957	0.555	0.7497	3.271
Mof_C 	C 	0.23874	0.5315	0.72896	18.882
Mof_C 	C 	0.1456	0.531	0.89554	0.481
Mof_H 	H 	0.1679	0.5214	0.9017	-0.129
Mof_C 	C 	0.1202	0.5354	0.92092	-0.487
Mof_H 	H 	0.1249	0.5289	0.9446	0.186
Mof_C 	C 	0.0812	0.5587	0.8778	-0.319
Mof_H 	H 	0.059	0.5683	0.8716	-0.005
Mof_C 	C 	0.1066	0.5543	0.85242	-0.049
Mof_H 	H 	0.102	0.5609	0.8288	0
Mof_C 	C 	0.03059	0.5491	0.92181	0.12
Mof_C 	C 	0.01762	0.5509	0.88908	0.03
Mof_C 	C 	0.04076	0.5588	0.85857	-0.496
Mof_H 	H 	0.0383	0.5833	0.8542	0.162
Mof_H 	H 	0.0645	0.5549	0.8653	0.434
Mof_C 	C 	0.0298	0.5487	0.8223	0.025
Mof_H 	H 	0.046	0.5588	0.8054	-0.013
Mof_H 	H 	0.0301	0.5233	0.8201	0.014
Mof_H 	H 	0.0063	0.5573	0.8178	0.003
Mof_C 	C 	0.2412	0.4767	0.82616	2.963
Mof_H 	H 	0.2221	0.4842	0.8405	-0.863
Mof_H 	H 	0.2627	0.4814	0.8378	-0.729
Mof_H 	H 	0.2392	0.4522	0.8218	-1.568
Mof_C 	C 	0.2379	0.5508	0.69478	-7.678
Mof_H 	H 	0.2185	0.5665	0.6946	2.225
Mof_H 	H 	0.2356	0.5345	0.676	2.778
Mof_H 	H 	0.2591	0.5638	0.692	1.501
Mof_C 	C 	0.73456	0.76682	0.4893	-2.577
Mof_H 	H 	0.7167	0.7712	0.4724	-8.771
Mof_C 	C 	0.75969	0.79197	0.496	0.393
Mof_C 	C 	0.78639	0.75411	0.5382	-8.386
Mof_H 	H 	0.8043	0.7497	0.555	3.272
Mof_C 	C 	0.76126	0.72896	0.5315	18.887
Mof_C 	C 	0.8544	0.89554	0.531	0.481
Mof_H 	H 	0.8321	0.9017	0.5214	-0.129
Mof_C 	C 	0.8798	0.92092	0.5354	-0.486
Mof_H 	H 	0.8751	0.9446	0.5289	0.186
Mof_C 	C 	0.9188	0.8778	0.5587	-0.319
Mof_H 	H 	0.941	0.8716	0.5683	-0.005
Mof_C 	C 	0.8934	0.85242	0.5543	-0.047
Mof_H 	H 	0.898	0.8288	0.5609	-0
Mof_C 	C 	0.96941	0.92181	0.5491	0.12
Mof_C 	C 	0.98238	0.88908	0.5509	0.025
Mof_C 	C 	0.95924	0.85857	0.5588	-0.491
Mof_H 	H 	0.9617	0.8542	0.5833	0.161
Mof_H 	H 	0.9355	0.8653	0.5549	0.432
Mof_C 	C 	0.9702	0.8223	0.5487	0.021
Mof_H 	H 	0.954	0.8054	0.5588	-0.012
Mof_H 	H 	0.9699	0.8201	0.5233	0.015
Mof_H 	H 	0.9937	0.8178	0.5573	0.004
Mof_C 	C 	0.7588	0.82616	0.4767	2.964
Mof_H 	H 	0.7779	0.8405	0.4842	-0.864
Mof_H 	H 	0.7373	0.8378	0.4814	-0.729
Mof_H 	H 	0.7608	0.8218	0.4522	-1.568
Mof_C 	C 	0.7621	0.69478	0.5508	-7.679
Mof_H 	H 	0.7815	0.6946	0.5665	2.225
Mof_H 	H 	0.7644	0.676	0.5345	2.778
Mof_H 	H 	0.7409	0.692	0.5638	1.501
Mof_C 	C 	0.26544	0.23318	0.4893	-2.575
Mof_H 	H 	0.2833	0.2288	0.4724	-8.766
Mof_C 	C 	0.24031	0.20803	0.496	0.393
Mof_C 	C 	0.21361	0.24589	0.5382	-8.382
Mof_H 	H 	0.1957	0.2503	0.555	3.27
Mof_C 	C 	0.23874	0.27104	0.5315	18.878
Mof_C 	C 	0.1456	0.10446	0.531	0.484
Mof_H 	H 	0.1679	0.0983	0.5214	-0.13
Mof_C 	C 	0.1202	0.07908	0.5354	-0.488
Mof_H 	H 	0.1249	0.0554	0.5289	0.187
Mof_C 	C 	0.0812	0.1222	0.5587	-0.319
Mof_H 	H 	0.059	0.1284	0.5683	-0.005
Mof_C 	C 	0.1066	0.14758	0.5543	-0.048
Mof_H 	H 	0.102	0.1712	0.5609	0
Mof_C 	C 	0.03059	0.07819	0.5491	0.12
Mof_C 	C 	0.01762	0.11092	0.5509	0.03
Mof_C 	C 	0.04076	0.14143	0.5588	-0.496
Mof_H 	H 	0.0383	0.1458	0.5833	0.162
Mof_H 	H 	0.0645	0.1347	0.5549	0.434
Mof_C 	C 	0.0298	0.1777	0.5487	0.025
Mof_H 	H 	0.046	0.1946	0.5588	-0.013
Mof_H 	H 	0.0301	0.1799	0.5233	0.014
Mof_H 	H 	0.0063	0.1822	0.5573	0.003
Mof_C 	C 	0.2412	0.17384	0.4767	2.962
Mof_H 	H 	0.2221	0.1595	0.4842	-0.863
Mof_H 	H 	0.2627	0.1622	0.4814	-0.729
Mof_H 	H 	0.2392	0.1782	0.4522	-1.567
Mof_C 	C 	0.2379	0.30522	0.5508	-7.676
Mof_H 	H 	0.2185	0.3054	0.5665	2.225
Mof_H 	H 	0.2356	0.324	0.5345	2.777
Mof_H 	H 	0.2591	0.308	0.5638	1.5
Mof_C 	C 	0.73456	0.23318	0.5107	-2.576
Mof_H 	H 	0.7167	0.2288	0.5276	-8.768
Mof_C 	C 	0.75969	0.20803	0.504	0.393
Mof_C 	C 	0.78639	0.24589	0.4618	-8.384
Mof_H 	H 	0.8043	0.2503	0.445	3.271
Mof_C 	C 	0.76126	0.27104	0.4685	18.882
Mof_C 	C 	0.8544	0.10446	0.469	0.483
Mof_H 	H 	0.8321	0.0983	0.4786	-0.13
Mof_C 	C 	0.8798	0.07908	0.4646	-0.488
Mof_H 	H 	0.8751	0.0554	0.4711	0.187
Mof_C 	C 	0.9188	0.1222	0.4413	-0.319
Mof_H 	H 	0.941	0.1284	0.4317	-0.005
Mof_C 	C 	0.8934	0.14758	0.4457	-0.047
Mof_H 	H 	0.898	0.1712	0.4391	-0
Mof_C 	C 	0.96941	0.07819	0.4509	0.121
Mof_C 	C 	0.98238	0.11092	0.4491	0.025
Mof_C 	C 	0.95924	0.14143	0.4412	-0.491
Mof_H 	H 	0.9617	0.1458	0.4167	0.161
Mof_H 	H 	0.9355	0.1347	0.4451	0.432
Mof_C 	C 	0.9702	0.1777	0.4513	0.021
Mof_H 	H 	0.954	0.1946	0.4412	-0.012
Mof_H 	H 	0.9699	0.1799	0.4767	0.015
Mof_H 	H 	0.9937	0.1822	0.4427	0.004
Mof_C 	C 	0.7588	0.17384	0.5233	2.963
Mof_H 	H 	0.7779	0.1595	0.5158	-0.863
Mof_H 	H 	0.7373	0.1622	0.5186	-0.729
Mof_H 	H 	0.7608	0.1782	0.5478	-1.567
Mof_C 	C 	0.7621	0.30522	0.4492	-7.678
Mof_H 	H 	0.7815	0.3054	0.4335	2.225
Mof_H 	H 	0.7644	0.324	0.4655	2.778
Mof_H 	H 	0.7409	0.308	0.4362	1.501
Mof_C 	C 	0.26544	0.76682	0.5107	-2.576
Mof_H 	H 	0.2833	0.7712	0.5276	-8.768
Mof_C 	C 	0.24031	0.79197	0.504	0.393
Mof_C 	C 	0.21361	0.75411	0.4618	-8.384
Mof_H 	H 	0.1957	0.7497	0.445	3.271
Mof_C 	C 	0.23874	0.72896	0.4685	18.882
Mof_C 	C 	0.1456	0.89554	0.469	0.481
Mof_H 	H 	0.1679	0.9017	0.4786	-0.129
Mof_C 	C 	0.1202	0.92092	0.4646	-0.487
Mof_H 	H 	0.1249	0.9446	0.4711	0.186
Mof_C 	C 	0.0812	0.8778	0.4413	-0.319
Mof_H 	H 	0.059	0.8716	0.4317	-0.005
Mof_C 	C 	0.1066	0.85242	0.4457	-0.048
Mof_H 	H 	0.102	0.8288	0.4391	0
Mof_C 	C 	0.03059	0.92181	0.4509	0.12
Mof_C 	C 	0.01762	0.88908	0.4491	0.03
Mof_C 	C 	0.04076	0.85857	0.4412	-0.496
Mof_H 	H 	0.0383	0.8542	0.4167	0.162
Mof_H 	H 	0.0645	0.8653	0.4451	0.434
Mof_C 	C 	0.0298	0.8223	0.4513	0.025
Mof_H 	H 	0.046	0.8054	0.4412	-0.013
Mof_H 	H 	0.0301	0.8201	0.4767	0.014
Mof_H 	H 	0.0063	0.8178	0.4427	0.003
Mof_C 	C 	0.2412	0.82616	0.5233	2.963
Mof_H 	H 	0.2221	0.8405	0.5158	-0.863
Mof_H 	H 	0.2627	0.8378	0.5186	-0.729
Mof_H 	H 	0.2392	0.8218	0.5478	-1.568
Mof_C 	C 	0.2379	0.69478	0.4492	-7.678
Mof_H 	H 	0.2185	0.6946	0.4335	2.225
Mof_H 	H 	0.2356	0.676	0.4655	2.778
Mof_H 	H 	0.2591	0.692	0.4362	1.501
Mof_C 	C 	0.76682	0.5107	0.26544	-2.576
Mof_H 	H 	0.7712	0.5276	0.2833	-8.768
Mof_C 	C 	0.79197	0.504	0.24031	0.393
Mof_C 	C 	0.75411	0.4618	0.21361	-8.384
Mof_H 	H 	0.7497	0.445	0.1957	3.271
Mof_C 	C 	0.72896	0.4685	0.23874	18.882
Mof_C 	C 	0.89554	0.469	0.1456	0.481
Mof_H 	H 	0.9017	0.4786	0.1679	-0.129
Mof_C 	C 	0.92092	0.4646	0.1202	-0.487
Mof_H 	H 	0.9446	0.4711	0.1249	0.186
Mof_C 	C 	0.8778	0.4413	0.0812	-0.319
Mof_H 	H 	0.8716	0.4317	0.059	-0.005
Mof_C 	C 	0.85242	0.4457	0.1066	-0.048
Mof_H 	H 	0.8288	0.4391	0.102	0
Mof_C 	C 	0.92181	0.4509	0.03059	0.12
Mof_C 	C 	0.88908	0.4491	0.01762	0.03
Mof_C 	C 	0.85857	0.4412	0.04076	-0.496
Mof_H 	H 	0.8542	0.4167	0.0383	0.162
Mof_H 	H 	0.8653	0.4451	0.0645	0.434
Mof_C 	C 	0.8223	0.4513	0.0298	0.025
Mof_H 	H 	0.8054	0.4412	0.046	-0.013
Mof_H 	H 	0.8201	0.4767	0.0301	0.014
Mof_H 	H 	0.8178	0.4427	0.0063	0.003
Mof_C 	C 	0.82616	0.5233	0.2412	2.963
Mof_H 	H 	0.8405	0.5158	0.2221	-0.863
Mof_H 	H 	0.8378	0.5186	0.2627	-0.729
Mof_H 	H 	0.8218	0.5478	0.2392	-1.568
Mof_C 	C 	0.69478	0.4492	0.2379	-7.678
Mof_H 	H 	0.6946	0.4335	0.2185	2.225
Mof_H 	H 	0.676	0.4655	0.2356	2.778
Mof_H 	H 	0.692	0.4362	0.2591	1.501
Mof_C 	C 	0.23318	0.5107	0.73456	-2.576
Mof_H 	H 	0.2288	0.5276	0.7167	-8.768
Mof_C 	C 	0.20803	0.504	0.75969	0.393
Mof_C 	C 	0.24589	0.4618	0.78639	-8.384
Mof_H 	H 	0.2503	0.445	0.8043	3.271
Mof_C 	C 	0.27104	0.4685	0.76126	18.882
Mof_C 	C 	0.10446	0.469	0.8544	0.483
Mof_H 	H 	0.0983	0.4786	0.8321	-0.13
Mof_C 	C 	0.07908	0.4646	0.8798	-0.488
Mof_H 	H 	0.0554	0.4711	0.8751	0.187
Mof_C 	C 	0.1222	0.4413	0.9188	-0.319
Mof_H 	H 	0.1284	0.4317	0.941	-0.005
Mof_C 	C 	0.14758	0.4457	0.8934	-0.047
Mof_H 	H 	0.1712	0.4391	0.898	-0
Mof_C 	C 	0.07819	0.4509	0.96941	0.121
Mof_C 	C 	0.11092	0.4491	0.98238	0.025
Mof_C 	C 	0.14143	0.4412	0.95924	-0.491
Mof_H 	H 	0.1458	0.4167	0.9617	0.161
Mof_H 	H 	0.1347	0.4451	0.9355	0.432
Mof_C 	C 	0.1777	0.4513	0.9702	0.021
Mof_H 	H 	0.1946	0.4412	0.954	-0.012
Mof_H 	H 	0.1799	0.4767	0.9699	0.015
Mof_H 	H 	0.1822	0.4427	0.9937	0.004
Mof_C 	C 	0.17384	0.5233	0.7588	2.963
Mof_H 	H 	0.1595	0.5158	0.7779	-0.863
Mof_H 	H 	0.1622	0.5186	0.7373	-0.729
Mof_H 	H 	0.1782	0.5478	0.7608	-1.567
Mof_C 	C 	0.30522	0.4492	0.7621	-7.678
Mof_H 	H 	0.3054	0.4335	0.7815	2.225
Mof_H 	H 	0.324	0.4655	0.7644	2.778
Mof_H 	H 	0.308	0.4362	0.7409	1.501
Mof_C 	C 	0.23318	0.4893	0.26544	-2.575
Mof_H 	H 	0.2288	0.4724	0.2833	-8.766
Mof_C 	C 	0.20803	0.496	0.24031	0.393
Mof_C 	C 	0.24589	0.5382	0.21361	-8.382
Mof_H 	H 	0.2503	0.555	0.1957	3.27
Mof_C 	C 	0.27104	0.5315	0.23874	18.878
Mof_C 	C 	0.10446	0.531	0.1456	0.484
Mof_H 	H 	0.0983	0.5214	0.1679	-0.13
Mof_C 	C 	0.07908	0.5354	0.1202	-0.488
Mof_H 	H 	0.0554	0.5289	0.1249	0.187
Mof_C 	C 	0.1222	0.5587	0.0812	-0.319
Mof_H 	H 	0.1284	0.5683	0.059	-0.005
Mof_C 	C 	0.14758	0.5543	0.1066	-0.048
Mof_H 	H 	0.1712	0.5609	0.102	0
Mof_C 	C 	0.07819	0.5491	0.03059	0.12
Mof_C 	C 	0.11092	0.5509	0.01762	0.03
Mof_C 	C 	0.14143	0.5588	0.04076	-0.496
Mof_H 	H 	0.1458	0.5833	0.0383	0.162
Mof_H 	H 	0.1347	0.5549	0.0645	0.434
Mof_C 	C 	0.1777	0.5487	0.0298	0.025
Mof_H 	H 	0.1946	0.5588	0.046	-0.013
Mof_H 	H 	0.1799	0.5233	0.0301	0.014
Mof_H 	H 	0.1822	0.5573	0.0063	0.003
Mof_C 	C 	0.17384	0.4767	0.2412	2.962
Mof_H 	H 	0.1595	0.4842	0.2221	-0.863
Mof_H 	H 	0.1622	0.4814	0.2627	-0.729
Mof_H 	H 	0.1782	0.4522	0.2392	-1.567
Mof_C 	C 	0.30522	0.5508	0.2379	-7.676
Mof_H 	H 	0.3054	0.5665	0.2185	2.225
Mof_H 	H 	0.324	0.5345	0.2356	2.777
Mof_H 	H 	0.308	0.5638	0.2591	1.5
Mof_C 	C 	0.76682	0.4893	0.73456	-2.577
Mof_H 	H 	0.7712	0.4724	0.7167	-8.771
Mof_C 	C 	0.79197	0.496	0.75969	0.393
Mof_C 	C 	0.75411	0.5382	0.78639	-8.386
Mof_H 	H 	0.7497	0.555	0.8043	3.272
Mof_C 	C 	0.72896	0.5315	0.76126	18.887
Mof_C 	C 	0.89554	0.531	0.8544	0.481
Mof_H 	H 	0.9017	0.5214	0.8321	-0.129
Mof_C 	C 	0.92092	0.5354	0.8798	-0.486
Mof_H 	H 	0.9446	0.5289	0.8751	0.186
Mof_C 	C 	0.8778	0.5587	0.9188	-0.319
Mof_H 	H 	0.8716	0.5683	0.941	-0.005
Mof_C 	C 	0.85242	0.5543	0.8934	-0.047
Mof_H 	H 	0.8288	0.5609	0.898	-0
Mof_C 	C 	0.92181	0.5491	0.96941	0.12
Mof_C 	C 	0.88908	0.5509	0.98238	0.025
Mof_C 	C 	0.85857	0.5588	0.95924	-0.491
Mof_H 	H 	0.8542	0.5833	0.9617	0.161
Mof_H 	H 	0.8653	0.5549	0.9355	0.432
Mof_C 	C 	0.8223	0.5487	0.9702	0.021
Mof_H 	H 	0.8054	0.5588	0.954	-0.012
Mof_H 	H 	0.8201	0.5233	0.9699	0.015
Mof_H 	H 	0.8178	0.5573	0.9937	0.004
Mof_C 	C 	0.82616	0.4767	0.7588	2.964
Mof_H 	H 	0.8405	0.4842	0.7779	-0.864
Mof_H 	H 	0.8378	0.4814	0.7373	-0.729
Mof_H 	H 	0.8218	0.4522	0.7608	-1.568
Mof_C 	C 	0.69478	0.5508	0.7621	-7.679
Mof_H 	H 	0.6946	0.5665	0.7815	2.225
Mof_H 	H 	0.676	0.5345	0.7644	2.778
Mof_H 	H 	0.692	0.5638	0.7409	1.501
Mof_C 	C 	0.5107	0.73456	0.23318	-2.576
Mof_H 	H 	0.5276	0.7167	0.2288	-8.768
Mof_C 	C 	0.504	0.75969	0.20803	0.393
Mof_C 	C 	0.4618	0.78639	0.24589	-8.384
Mof_H 	H 	0.445	0.8043	0.2503	3.271
Mof_C 	C 	0.4685	0.76126	0.27104	18.882
Mof_C 	C 	0.469	0.8544	0.10446	0.483
Mof_H 	H 	0.4786	0.8321	0.0983	-0.13
Mof_C 	C 	0.4646	0.8798	0.07908	-0.488
Mof_H 	H 	0.4711	0.8751	0.0554	0.187
Mof_C 	C 	0.4413	0.9188	0.1222	-0.319
Mof_H 	H 	0.4317	0.941	0.1284	-0.005
Mof_C 	C 	0.4457	0.8934	0.14758	-0.047
Mof_H 	H 	0.4391	0.898	0.1712	-0
Mof_C 	C 	0.4509	0.96941	0.07819	0.121
Mof_C 	C 	0.4491	0.98238	0.11092	0.025
Mof_C 	C 	0.4412	0.95924	0.14143	-0.491
Mof_H 	H 	0.4167	0.9617	0.1458	0.161
Mof_H 	H 	0.4451	0.9355	0.1347	0.432
Mof_C 	C 	0.4513	0.9702	0.1777	0.021
Mof_H 	H 	0.4412	0.954	0.1946	-0.012
Mof_H 	H 	0.4767	0.9699	0.1799	0.015
Mof_H 	H 	0.4427	0.9937	0.1822	0.004
Mof_C 	C 	0.5233	0.7588	0.17384	2.963
Mof_H 	H 	0.5158	0.7779	0.1595	-0.863
Mof_H 	H 	0.5186	0.7373	0.1622	-0.729
Mof_H 	H 	0.5478	0.7608	0.1782	-1.567
Mof_C 	C 	0.4492	0.7621	0.30522	-7.678
Mof_H 	H 	0.4335	0.7815	0.3054	2.225
Mof_H 	H 	0.4655	0.7644	0.324	2.778
Mof_H 	H 	0.4362	0.7409	0.308	1.501
Mof_C 	C 	0.5107	0.26544	0.76682	-2.576
Mof_H 	H 	0.5276	0.2833	0.7712	-8.768
Mof_C 	C 	0.504	0.24031	0.79197	0.393
Mof_C 	C 	0.4618	0.21361	0.75411	-8.384
Mof_H 	H 	0.445	0.1957	0.7497	3.271
Mof_C 	C 	0.4685	0.23874	0.72896	18.882
Mof_C 	C 	0.469	0.1456	0.89554	0.481
Mof_H 	H 	0.4786	0.1679	0.9017	-0.129
Mof_C 	C 	0.4646	0.1202	0.92092	-0.487
Mof_H 	H 	0.4711	0.1249	0.9446	0.186
Mof_C 	C 	0.4413	0.0812	0.8778	-0.319
Mof_H 	H 	0.4317	0.059	0.8716	-0.005
Mof_C 	C 	0.4457	0.1066	0.85242	-0.048
Mof_H 	H 	0.4391	0.102	0.8288	0
Mof_C 	C 	0.4509	0.03059	0.92181	0.12
Mof_C 	C 	0.4491	0.01762	0.88908	0.03
Mof_C 	C 	0.4412	0.04076	0.85857	-0.496
Mof_H 	H 	0.4167	0.0383	0.8542	0.162
Mof_H 	H 	0.4451	0.0645	0.8653	0.434
Mof_C 	C 	0.4513	0.0298	0.8223	0.025
Mof_H 	H 	0.4412	0.046	0.8054	-0.013
Mof_H 	H 	0.4767	0.0301	0.8201	0.014
Mof_H 	H 	0.4427	0.0063	0.8178	0.003
Mof_C 	C 	0.5233	0.2412	0.82616	2.963
Mof_H 	H 	0.5158	0.2221	0.8405	-0.863
Mof_H 	H 	0.5186	0.2627	0.8378	-0.729
Mof_H 	H 	0.5478	0.2392	0.8218	-1.568
Mof_C 	C 	0.4492	0.2379	0.69478	-7.678
Mof_H 	H 	0.4335	0.2185	0.6946	2.225
Mof_H 	H 	0.4655	0.2356	0.676	2.778
Mof_H 	H 	0.4362	0.2591	0.692	1.501
Mof_C 	C 	0.4893	0.73456	0.76682	-2.577
Mof_H 	H 	0.4724	0.7167	0.7712	-8.771
Mof_C 	C 	0.496	0.75969	0.79197	0.393
Mof_C 	C 	0.5382	0.78639	0.75411	-8.386
Mof_H 	H 	0.555	0.8043	0.7497	3.272
Mof_C 	C 	0.5315	0.76126	0.72896	18.887
Mof_C 	C 	0.531	0.8544	0.89554	0.481
Mof_H 	H 	0.5214	0.8321	0.9017	-0.129
Mof_C 	C 	0.5354	0.8798	0.92092	-0.486
Mof_H 	H 	0.5289	0.8751	0.9446	0.186
Mof_C 	C 	0.5587	0.9188	0.8778	-0.319
Mof_H 	H 	0.5683	0.941	0.8716	-0.005
Mof_C 	C 	0.5543	0.8934	0.85242	-0.047
Mof_H 	H 	0.5609	0.898	0.8288	-0
Mof_C 	C 	0.5491	0.96941	0.92181	0.12
Mof_C 	C 	0.5509	0.98238	0.88908	0.025
Mof_C 	C 	0.5588	0.95924	0.85857	-0.491
Mof_H 	H 	0.5833	0.9617	0.8542	0.161
Mof_H 	H 	0.5549	0.9355	0.8653	0.432
Mof_C 	C 	0.5487	0.9702	0.8223	0.021
Mof_H 	H 	0.5588	0.954	0.8054	-0.012
Mof_H 	H 	0.5233	0.9699	0.8201	0.015
Mof_H 	H 	0.5573	0.9937	0.8178	0.004
Mof_C 	C 	0.4767	0.7588	0.82616	2.964
Mof_H 	H 	0.4842	0.7779	0.8405	-0.864
Mof_H 	H 	0.4814	0.7373	0.8378	-0.729
Mof_H 	H 	0.4522	0.7608	0.8218	-1.568
Mof_C 	C 	0.5508	0.7621	0.69478	-7.679
Mof_H 	H 	0.5665	0.7815	0.6946	2.225
Mof_H 	H 	0.5345	0.7644	0.676	2.778
Mof_H 	H 	0.5638	0.7409	0.692	1.501
Mof_C 	C 	0.4893	0.26544	0.23318	-2.575
Mof_H 	H 	0.4724	0.2833	0.2288	-8.766
Mof_C 	C 	0.496	0.24031	0.20803	0.393
Mof_C 	C 	0.5382	0.21361	0.24589	-8.382
Mof_H 	H 	0.555	0.1957	0.2503	3.27
Mof_C 	C 	0.5315	0.23874	0.27104	18.878
Mof_C 	C 	0.531	0.1456	0.10446	0.484
Mof_H 	H 	0.5214	0.1679	0.0983	-0.13
Mof_C 	C 	0.5354	0.1202	0.07908	-0.488
Mof_H 	H 	0.5289	0.1249	0.0554	0.187
Mof_C 	C 	0.5587	0.0812	0.1222	-0.319
Mof_H 	H 	0.5683	0.059	0.1284	-0.005
Mof_C 	C 	0.5543	0.1066	0.14758	-0.048
Mof_H 	H 	0.5609	0.102	0.1712	0
Mof_C 	C 	0.5491	0.03059	0.07819	0.12
Mof_C 	C 	0.5509	0.01762	0.11092	0.03
Mof_C 	C 	0.5588	0.04076	0.14143	-0.496
Mof_H 	H 	0.5833	0.0383	0.1458	0.162
Mof_H 	H 	0.5549	0.0645	0.1347	0.434
Mof_C 	C 	0.5487	0.0298	0.1777	0.025
Mof_H 	H 	0.5588	0.046	0.1946	-0.013
Mof_H 	H 	0.5233	0.0301	0.1799	0.014
Mof_H 	H 	0.5573	0.0063	0.1822	0.003
Mof_C 	C 	0.4767	0.2412	0.17384	2.962
Mof_H 	H 	0.4842	0.2221	0.1595	-0.863
Mof_H 	H 	0.4814	0.2627	0.1622	-0.729
Mof_H 	H 	0.4522	0.2392	0.1782	-1.567
Mof_C 	C 	0.5508	0.2379	0.30522	-7.676
Mof_H 	H 	0.5665	0.2185	0.3054	2.225
Mof_H 	H 	0.5345	0.2356	0.324	2.777
Mof_H 	H 	0.5638	0.2591	0.308	1.5
Mof_Zr	Zr	0.43556	0.5	0.5	3.217
Mof_Zr	Zr	0.56444	0.5	0.5	3.217
Mof_Zr	Zr	0.5	0.43556	0.5	3.217
Mof_Zr	Zr	0.5	0.56444	0.5	3.217
Mof_Zr	Zr	0.5	0.5	0.43556	3.217
Mof_Zr	Zr	0.5	0.5	0.56444	3.217
Mof_O 	O 	0.46842	0.46842	0.46842	-1.255
Mof_O 	O 	0.53158	0.53158	0.46842	-1.255
Mof_O 	O 	0.53158	0.46842	0.53158	-1.255
Mof_O 	O 	0.46842	0.53158	0.53158	-1.255
Mof_O 	O 	0.46842	0.46842	0.53158	-1.255
Mof_O 	O 	0.53158	0.53158	0.53158	-1.255
Mof_O 	O 	0.46842	0.53158	0.46842	-1.255
Mof_O 	O 	0.53158	0.46842	0.46842	-1.255
Mof_O 	O 	0.40712	0.44995	0.5	-0.699
Mof_C 	C 	0.35767	0.40212	0.5	0.524
Mof_H 	H 	0.3513	0.426	0.5	-0.176
Mof_C 	C 	0.33206	0.37651	0.5	-0.94
Mof_H 	H 	0.3082	0.3828	0.5	0.22
Mof_O 	O 	0.59288	0.55005	0.5	-0.699
Mof_C 	C 	0.64233	0.59788	0.5	0.524
Mof_H 	H 	0.6487	0.574	0.5	-0.176
Mof_C 	C 	0.66794	0.62349	0.5	-0.941
Mof_H 	H 	0.6918	0.6172	0.5	0.221
Mof_O 	O 	0.59288	0.44995	0.5	-0.699
Mof_C 	C 	0.64233	0.40212	0.5	0.524
Mof_H 	H 	0.6487	0.426	0.5	-0.176
Mof_C 	C 	0.66794	0.37651	0.5	-0.941
Mof_H 	H 	0.6918	0.3828	0.5	0.22
Mof_O 	O 	0.40712	0.55005	0.5	-0.699
Mof_C 	C 	0.35767	0.59788	0.5	0.524
Mof_H 	H 	0.3513	0.574	0.5	-0.176
Mof_C 	C 	0.33206	0.62349	0.5	-0.941
Mof_H 	H 	0.3082	0.6172	0.5	0.221
Mof_O 	O 	0.5	0.40712	0.44995	-0.699
Mof_C 	C 	0.5	0.35767	0.40212	0.524
Mof_H 	H 	0.5	0.3513	0.426	-0.176
Mof_C 	C 	0.5	0.33206	0.37651	-0.94
Mof_H 	H 	0.5	0.3082	0.3828	0.22
Mof_O 	O 	0.5	0.59288	0.55005	-0.699
Mof_C 	C 	0.5	0.64233	0.59788	0.524
Mof_H 	H 	0.5	0.6487	0.574	-0.176
Mof_C 	C 	0.5	0.66794	0.62349	-0.941
Mof_H 	H 	0.5	0.6918	0.6172	0.221
Mof_O 	O 	0.5	0.59288	0.44995	-0.699
Mof_C 	C 	0.5	0.64233	0.40212	0.524
Mof_H 	H 	0.5	0.6487	0.426	-0.176
Mof_C 	C 	0.5	0.66794	0.37651	-0.941
Mof_H 	H 	0.5	0.6918	0.3828	0.22
Mof_O 	O 	0.5	0.40712	0.55005	-0.699
Mof_C 	C 	0.5	0.35767	0.59788	0.524
Mof_H 	H 	0.5	0.3513	0.574	-0.176
Mof_C 	C 	0.5	0.33206	0.62349	-0.941
Mof_H 	H 	0.5	0.3082	0.6172	0.221
Mof_O 	O 	0.44995	0.5	0.40712	-0.699
Mof_C 	C 	0.40212	0.5	0.35767	0.524
Mof_H 	H 	0.426	0.5	0.3513	-0.176
Mof_C 	C 	0.37651	0.5	0.33206	-0.94
Mof_H 	H 	0.3828	0.5	0.3082	0.22
Mof_O 	O 	0.55005	0.5	0.59288	-0.699
Mof_C 	C 	0.59788	0.5	0.64233	0.524
Mof_H 	H 	0.574	0.5	0.6487	-0.176
Mof_C 	C 	0.62349	0.5	0.66794	-0.941
Mof_H 	H 	0.6172	0.5	0.6918	0.221
Mof_O 	O 	0.44995	0.5	0.59288	-0.699
Mof_C 	C 	0.40212	0.5	0.64233	0.524
Mof_H 	H 	0.426	0.5	0.6487	-0.176
Mof_C 	C 	0.37651	0.5	0.66794	-0.941
Mof_H 	H 	0.3828	0.5	0.6918	0.22
Mof_O 	O 	0.55005	0.5	0.40712	-0.699
Mof_C 	C 	0.59788	0.5	0.35767	0.524
Mof_H 	H 	0.574	0.5	0.3513	-0.176
Mof_C 	C 	0.62349	0.5	0.33206	-0.941
Mof_H 	H 	0.6172	0.5	0.3082	0.221
Mof_O 	O 	0.44995	0.40712	0.5	-0.699
Mof_C 	C 	0.40212	0.35767	0.5	0.524
Mof_H 	H 	0.426	0.3513	0.5	-0.176
Mof_C 	C 	0.37651	0.33206	0.5	-0.94
Mof_H 	H 	0.3828	0.3082	0.5	0.22
Mof_O 	O 	0.55005	0.59288	0.5	-0.699
Mof_C 	C 	0.59788	0.64233	0.5	0.524
Mof_H 	H 	0.574	0.6487	0.5	-0.176
Mof_C 	C 	0.62349	0.66794	0.5	-0.941
Mof_H 	H 	0.6172	0.6918	0.5	0.221
Mof_O 	O 	0.44995	0.59288	0.5	-0.699
Mof_C 	C 	0.40212	0.64233	0.5	0.524
Mof_H 	H 	0.426	0.6487	0.5	-0.176
Mof_C 	C 	0.37651	0.66794	0.5	-0.941
Mof_H 	H 	0.3828	0.6918	0.5	0.22
Mof_O 	O 	0.55005	0.40712	0.5	-0.699
Mof_C 	C 	0.59788	0.35767	0.5	0.524
Mof_H 	H 	0.574	0.3513	0.5	-0.176
Mof_C 	C 	0.62349	0.33206	0.5	-0.941
Mof_H 	H 	0.6172	0.3082	0.5	0.221
Mof_O 	O 	0.40712	0.5	0.55005	-0.699
Mof_C 	C 	0.35767	0.5	0.59788	0.524
Mof_H 	H 	0.3513	0.5	0.574	-0.176
Mof_C 	C 	0.33206	0.5	0.62349	-0.941
Mof_H 	H 	0.3082	0.5	0.6172	0.221
Mof_O 	O 	0.59288	0.5	0.44995	-0.699
Mof_C 	C 	0.64233	0.5	0.40212	0.524
Mof_H 	H 	0.6487	0.5	0.426	-0.176
Mof_C 	C 	0.66794	0.5	0.37651	-0.941
Mof_H 	H 	0.6918	0.5	0.3828	0.22
Mof_O 	O 	0.59288	0.5	0.55005	-0.699
Mof_C 	C 	0.64233	0.5	0.59788	0.524
Mof_H 	H 	0.6487	0.5	0.574	-0.176
Mof_C 	C 	0.66794	0.5	0.62349	-0.941
Mof_H 	H 	0.6918	0.5	0.6172	0.221
Mof_O 	O 	0.40712	0.5	0.44995	-0.699
Mof_C 	C 	0.35767	0.5	0.40212	0.524
Mof_H 	H 	0.3513	0.5	0.426	-0.176
Mof_C 	C 	0.33206	0.5	0.37651	-0.94
Mof_H 	H 	0.3082	0.5	0.3828	0.22
Mof_O 	O 	0.5	0.44995	0.59288	-0.699
Mof_C 	C 	0.5	0.40212	0.64233	0.524
Mof_H 	H 	0.5	0.426	0.6487	-0.176
Mof_C 	C 	0.5	0.37651	0.66794	-0.941
Mof_H 	H 	0.5	0.3828	0.6918	0.22
Mof_O 	O 	0.5	0.55005	0.40712	-0.699
Mof_C 	C 	0.5	0.59788	0.35767	0.524
Mof_H 	H 	0.5	0.574	0.3513	-0.176
Mof_C 	C 	0.5	0.62349	0.33206	-0.941
Mof_H 	H 	0.5	0.6172	0.3082	0.221
Mof_O 	O 	0.5	0.44995	0.40712	-0.699
Mof_C 	C 	0.5	0.40212	0.35767	0.524
Mof_H 	H 	0.5	0.426	0.3513	-0.176
Mof_C 	C 	0.5	0.37651	0.33206	-0.94
Mof_H 	H 	0.5	0.3828	0.3082	0.22
Mof_O 	O 	0.5	0.55005	0.59288	-0.699
Mof_C 	C 	0.5	0.59788	0.64233	0.524
Mof_H 	H 	0.5	0.574	0.6487	-0.176
Mof_C 	C 	0.5	0.62349	0.66794	-0.941
Mof_H 	H 	0.5	0.6172	0.6918	0.221
Mof_C 	C 	0.41996	0.41996	0.5	0.635
Mof_C 	C 	0.3926	0.3926	0.5	-0.547
Mof_C 	C 	0.34159	0.34159	0.5	1.135
Mof_C 	C 	0.31411	0.31411	0.5	-2.516
Mof_C 	C 	0.2917	0.2917	0.5	3.203
Mof_C 	C 	0.58004	0.58004	0.5	0.635
Mof_C 	C 	0.6074	0.6074	0.5	-0.547
Mof_C 	C 	0.65841	0.65841	0.5	1.136
Mof_C 	C 	0.68589	0.68589	0.5	-2.517
Mof_C 	C 	0.7083	0.7083	0.5	3.205
Mof_C 	C 	0.58004	0.41996	0.5	0.635
Mof_C 	C 	0.6074	0.3926	0.5	-0.547
Mof_C 	C 	0.65841	0.34159	0.5	1.135
Mof_C 	C 	0.68589	0.31411	0.5	-2.516
Mof_C 	C 	0.7083	0.2917	0.5	3.204
Mof_C 	C 	0.41996	0.58004	0.5	0.635
Mof_C 	C 	0.3926	0.6074	0.5	-0.547
Mof_C 	C 	0.34159	0.65841	0.5	1.135
Mof_C 	C 	0.31411	0.68589	0.5	-2.516
Mof_C 	C 	0.2917	0.7083	0.5	3.204
Mof_C 	C 	0.5	0.41996	0.41996	0.635
Mof_C 	C 	0.5	0.3926	0.3926	-0.547
Mof_C 	C 	0.5	0.34159	0.34159	1.135
Mof_C 	C 	0.5	0.31411	0.31411	-2.516
Mof_C 	C 	0.5	0.2917	0.2917	3.203
Mof_C 	C 	0.5	0.58004	0.58004	0.635
Mof_C 	C 	0.5	0.6074	0.6074	-0.547
Mof_C 	C 	0.5	0.65841	0.65841	1.136
Mof_C 	C 	0.5	0.68589	0.68589	-2.517
Mof_C 	C 	0.5	0.7083	0.7083	3.205
Mof_C 	C 	0.5	0.58004	0.41996	0.635
Mof_C 	C 	0.5	0.6074	0.3926	-0.547
Mof_C 	C 	0.5	0.65841	0.34159	1.135
Mof_C 	C 	0.5	0.68589	0.31411	-2.516
Mof_C 	C 	0.5	0.7083	0.2917	3.204
Mof_C 	C 	0.5	0.41996	0.58004	0.635
Mof_C 	C 	0.5	0.3926	0.6074	-0.547
Mof_C 	C 	0.5	0.34159	0.65841	1.135
Mof_C 	C 	0.5	0.31411	0.68589	-2.516
Mof_C 	C 	0.5	0.2917	0.7083	3.204
Mof_C 	C 	0.41996	0.5	0.41996	0.635
Mof_C 	C 	0.3926	0.5	0.3926	-0.547
Mof_C 	C 	0.34159	0.5	0.34159	1.135
Mof_C 	C 	0.31411	0.5	0.31411	-2.516
Mof_C 	C 	0.2917	0.5	0.2917	3.203
Mof_C 	C 	0.58004	0.5	0.58004	0.635
Mof_C 	C 	0.6074	0.5	0.6074	-0.547
Mof_C 	C 	0.65841	0.5	0.65841	1.136
Mof_C 	C 	0.68589	0.5	0.68589	-2.517
Mof_C 	C 	0.7083	0.5	0.7083	3.205
Mof_C 	C 	0.41996	0.5	0.58004	0.635
Mof_C 	C 	0.3926	0.5	0.6074	-0.547
Mof_C 	C 	0.34159	0.5	0.65841	1.135
Mof_C 	C 	0.31411	0.5	0.68589	-2.516
Mof_C 	C 	0.2917	0.5	0.7083	3.204
Mof_C 	C 	0.58004	0.5	0.41996	0.635
Mof_C 	C 	0.6074	0.5	0.3926	-0.547
Mof_C 	C 	0.65841	0.5	0.34159	1.135
Mof_C 	C 	0.68589	0.5	0.31411	-2.516
Mof_C 	C 	0.7083	0.5	0.2917	3.204
Mof_C 	C 	0.26469	0.26469	0.50709	-6.14
Mof_C 	C 	0.21438	0.21438	0.5204	4.016
Mof_C 	C 	0.18756	0.18756	0.5276	-1.604
Mof_C 	C 	0.16608	0.16608	0.5356	1.05
Mof_C 	C 	0.13871	0.13871	0.5404	-0.611
Mof_C 	C 	0.08796	0.08796	0.5493	0.635
Mof_C 	C 	0.06402	0.06402	0.5534	-0.332
Mof_C 	C 	0.73531	0.73531	0.50709	-6.143
Mof_C 	C 	0.78562	0.78562	0.5204	4.019
Mof_C 	C 	0.81244	0.81244	0.5276	-1.604
Mof_C 	C 	0.83392	0.83392	0.5356	1.051
Mof_C 	C 	0.86129	0.86129	0.5404	-0.611
Mof_C 	C 	0.91204	0.91204	0.5493	0.633
Mof_C 	C 	0.93598	0.93598	0.5534	-0.332
Mof_C 	C 	0.73531	0.26469	0.49291	-6.141
Mof_C 	C 	0.78562	0.21438	0.4796	4.017
Mof_C 	C 	0.81244	0.18756	0.4724	-1.604
Mof_C 	C 	0.83392	0.16608	0.4644	1.051
Mof_C 	C 	0.86129	0.13871	0.4596	-0.611
Mof_C 	C 	0.91204	0.08796	0.4507	0.634
Mof_C 	C 	0.93598	0.06402	0.4466	-0.332
Mof_C 	C 	0.26469	0.73531	0.49291	-6.141
Mof_C 	C 	0.21438	0.78562	0.4796	4.017
Mof_C 	C 	0.18756	0.81244	0.4724	-1.604
Mof_C 	C 	0.16608	0.83392	0.4644	1.051
Mof_C 	C 	0.13871	0.86129	0.4596	-0.611
Mof_C 	C 	0.08796	0.91204	0.4507	0.634
Mof_C 	C 	0.06402	0.93598	0.4466	-0.332
Mof_C 	C 	0.50709	0.26469	0.26469	-6.14
Mof_C 	C 	0.5204	0.21438	0.21438	4.016
Mof_C 	C 	0.5276	0.18756	0.18756	-1.604
Mof_C 	C 	0.5356	0.16608	0.16608	1.05
Mof_C 	C 	0.5404	0.13871	0.13871	-0.611
Mof_C 	C 	0.5493	0.08796	0.08796	0.635
Mof_C 	C 	0.5534	0.06402	0.06402	-0.332
Mof_C 	C 	0.50709	0.73531	0.73531	-6.143
Mof_C 	C 	0.5204	0.78562	0.78562	4.019
Mof_C 	C 	0.5276	0.81244	0.81244	-1.604
Mof_C 	C 	0.5356	0.83392	0.83392	1.051
Mof_C 	C 	0.5404	0.86129	0.86129	-0.611
Mof_C 	C 	0.5493	0.91204	0.91204	0.633
Mof_C 	C 	0.5534	0.93598	0.93598	-0.332
Mof_C 	C 	0.49291	0.73531	0.26469	-6.141
Mof_C 	C 	0.4796	0.78562	0.21438	4.017
Mof_C 	C 	0.4724	0.81244	0.18756	-1.604
Mof_C 	C 	0.4644	0.83392	0.16608	1.051
Mof_C 	C 	0.4596	0.86129	0.13871	-0.611
Mof_C 	C 	0.4507	0.91204	0.08796	0.634
Mof_C 	C 	0.4466	0.93598	0.06402	-0.332
Mof_C 	C 	0.49291	0.26469	0.73531	-6.141
Mof_C 	C 	0.4796	0.21438	0.78562	4.017
Mof_C 	C 	0.4724	0.18756	0.81244	-1.604
Mof_C 	C 	0.4644	0.16608	0.83392	1.051
Mof_C 	C 	0.4596	0.13871	0.86129	-0.611
Mof_C 	C 	0.4507	0.08796	0.91204	0.634
Mof_C 	C 	0.4466	0.06402	0.93598	-0.332
Mof_C 	C 	0.26469	0.50709	0.26469	-6.14
Mof_C 	C 	0.21438	0.5204	0.21438	4.016
Mof_C 	C 	0.18756	0.5276	0.18756	-1.604
Mof_C 	C 	0.16608	0.5356	0.16608	1.05
Mof_C 	C 	0.13871	0.5404	0.13871	-0.611
Mof_C 	C 	0.08796	0.5493	0.08796	0.635
Mof_C 	C 	0.06402	0.5534	0.06402	-0.332
Mof_C 	C 	0.73531	0.50709	0.73531	-6.143
Mof_C 	C 	0.78562	0.5204	0.78562	4.019
Mof_C 	C 	0.81244	0.5276	0.81244	-1.604
Mof_C 	C 	0.83392	0.5356	0.83392	1.051
Mof_C 	C 	0.86129	0.5404	0.86129	-0.611
Mof_C 	C 	0.91204	0.5493	0.91204	0.633
Mof_C 	C 	0.93598	0.5534	0.93598	-0.332
Mof_C 	C 	0.26469	0.49291	0.73531	-6.141
Mof_C 	C 	0.21438	0.4796	0.78562	4.017
Mof_C 	C 	0.18756	0.4724	0.81244	-1.604
Mof_C 	C 	0.16608	0.4644	0.83392	1.051
Mof_C 	C 	0.13871	0.4596	0.86129	-0.611
Mof_C 	C 	0.08796	0.4507	0.91204	0.634
Mof_C 	C 	0.06402	0.4466	0.93598	-0.332
Mof_C 	C 	0.73531	0.49291	0.26469	-6.141
Mof_C 	C 	0.78562	0.4796	0.21438	4.017
Mof_C 	C 	0.81244	0.4724	0.18756	-1.604
Mof_C 	C 	0.83392	0.4644	0.16608	1.051
Mof_C 	C 	0.86129	0.4596	0.13871	-0.611
Mof_C 	C 	0.91204	0.4507	0.08796	0.634
Mof_C 	C 	0.93598	0.4466	0.06402	-0.332
Mof_C 	C 	0.26469	0.26469	0.49291	-6.14
Mof_C 	C 	0.21438	0.21438	0.4796	4.016
Mof_C 	C 	0.18756	0.18756	0.4724	-1.604
Mof_C 	C 	0.16608	0.16608	0.4644	1.05
Mof_C 	C 	0.13871	0.13871	0.4596	-0.611
Mof_C 	C 	0.08796	0.08796	0.4507	0.635
Mof_C 	C 	0.06402	0.06402	0.4466	-0.332
Mof_C 	C 	0.73531	0.73531	0.49291	-6.143
Mof_C 	C 	0.78562	0.78562	0.4796	4.019
Mof_C 	C 	0.81244	0.81244	0.4724	-1.604
Mof_C 	C 	0.83392	0.83392	0.4644	1.051
Mof_C 	C 	0.86129	0.86129	0.4596	-0.611
Mof_C 	C 	0.91204	0.91204	0.4507	0.633
Mof_C 	C 	0.93598	0.93598	0.4466	-0.332
Mof_C 	C 	0.26469	0.73531	0.50709	-6.141
Mof_C 	C 	0.21438	0.78562	0.5204	4.017
Mof_C 	C 	0.18756	0.81244	0.5276	-1.604
Mof_C 	C 	0.16608	0.83392	0.5356	1.051
Mof_C 	C 	0.13871	0.86129	0.5404	-0.611
Mof_C 	C 	0.08796	0.91204	0.5493	0.634
Mof_C 	C 	0.06402	0.93598	0.5534	-0.332
Mof_C 	C 	0.73531	0.26469	0.50709	-6.141
Mof_C 	C 	0.78562	0.21438	0.5204	4.017
Mof_C 	C 	0.81244	0.18756	0.5276	-1.604
Mof_C 	C 	0.83392	0.16608	0.5356	1.051
Mof_C 	C 	0.86129	0.13871	0.5404	-0.611
Mof_C 	C 	0.91204	0.08796	0.5493	0.634
Mof_C 	C 	0.93598	0.06402	0.5534	-0.332
Mof_C 	C 	0.26469	0.50709	0.73531	-6.141
Mof_C 	C 	0.21438	0.5204	0.78562	4.017
Mof_C 	C 	0.18756	0.5276	0.81244	-1.604
Mof_C 	C 	0.16608	0.5356	0.83392	1.051
Mof_C 	C 	0.13871	0.5404	0.86129	-0.611
Mof_C 	C 	0.08796	0.5493	0.91204	0.634
Mof_C 	C 	0.06402	0.5534	0.93598	-0.332
Mof_C 	C 	0.73531	0.50709	0.26469	-6.141
Mof_C 	C 	0.78562	0.5204	0.21438	4.017
Mof_C 	C 	0.81244	0.5276	0.18756	-1.604
Mof_C 	C 	0.83392	0.5356	0.16608	1.051
Mof_C 	C 	0.86129	0.5404	0.13871	-0.611
Mof_C 	C 	0.91204	0.5493	0.08796	0.634
Mof_C 	C 	0.93598	0.5534	0.06402	-0.332
Mof_C 	C 	0.73531	0.49291	0.73531	-6.143
Mof_C 	C 	0.78562	0.4796	0.78562	4.019
Mof_C 	C 	0.81244	0.4724	0.81244	-1.604
Mof_C 	C 	0.83392	0.4644	0.83392	1.051
Mof_C 	C 	0.86129	0.4596	0.86129	-0.611
Mof_C 	C 	0.91204	0.4507	0.91204	0.633
Mof_C 	C 	0.93598	0.4466	0.93598	-0.332
Mof_C 	C 	0.26469	0.49291	0.26469	-6.14
Mof_C 	C 	0.21438	0.4796	0.21438	4.016
Mof_C 	C 	0.18756	0.4724	0.18756	-1.604
Mof_C 	C 	0.16608	0.4644	0.16608	1.05
Mof_C 	C 	0.13871	0.4596	0.13871	-0.611
Mof_C 	C 	0.08796	0.4507	0.08796	0.635
Mof_C 	C 	0.06402	0.4466	0.06402	-0.332
Mof_C 	C 	0.50709	0.26469	0.73531	-6.141
Mof_C 	C 	0.5204	0.21438	0.78562	4.017
Mof_C 	C 	0.5276	0.18756	0.81244	-1.604
Mof_C 	C 	0.5356	0.16608	0.83392	1.051
Mof_C 	C 	0.5404	0.13871	0.86129	-0.611
Mof_C 	C 	0.5493	0.08796	0.91204	0.634
Mof_C 	C 	0.5534	0.06402	0.93598	-0.332
Mof_C 	C 	0.50709	0.73531	0.26469	-6.141
Mof_C 	C 	0.5204	0.78562	0.21438	4.017
Mof_C 	C 	0.5276	0.81244	0.18756	-1.604
Mof_C 	C 	0.5356	0.83392	0.16608	1.051
Mof_C 	C 	0.5404	0.86129	0.13871	-0.611
Mof_C 	C 	0.5493	0.91204	0.08796	0.634
Mof_C 	C 	0.5534	0.93598	0.06402	-0.332
Mof_C 	C 	0.49291	0.26469	0.26469	-6.14
Mof_C 	C 	0.4796	0.21438	0.21438	4.016
Mof_C 	C 	0.4724	0.18756	0.18756	-1.604
Mof_C 	C 	0.4644	0.16608	0.16608	1.05
Mof_C 	C 	0.4596	0.13871	0.13871	-0.611
Mof_C 	C 	0.4507	0.08796	0.08796	0.635
Mof_C 	C 	0.4466	0.06402	0.06402	-0.332
Mof_C 	C 	0.49291	0.73531	0.73531	-6.143
Mof_C 	C 	0.4796	0.78562	0.78562	4.019
Mof_C 	C 	0.4724	0.81244	0.81244	-1.604
Mof_C 	C 	0.4644	0.83392	0.83392	1.051
Mof_C 	C 	0.4596	0.86129	0.86129	-0.611
Mof_C 	C 	0.4507	0.91204	0.91204	0.633
Mof_C 	C 	0.4466	0.93598	0.93598	-0.332
Mof_N 	N 	0.05737	0	0.541	-0.206
Mof_H 	H 	0.036	7.12061e-33	0.5327	0.114
Mof_N 	N 	0.94263	0	0.541	-0.206
Mof_H 	H 	0.964	7.12061e-33	0.5327	0.114
Mof_N 	N 	0.94263	3.5603e-33	0.459	-0.206
Mof_H 	H 	0.964	7.12061e-33	0.4673	0.114
Mof_N 	N 	0.05737	3.5603e-33	0.459	-0.206
Mof_H 	H 	0.036	7.12061e-33	0.4673	0.114
Mof_N 	N 	0.541	0.05737	-0	-0.206
Mof_H 	H 	0.5327	0.036	-0	0.114
Mof_N 	N 	0.541	0.94263	-0	-0.206
Mof_H 	H 	0.5327	0.964	-0	0.114
Mof_N 	N 	0.459	0.94263	-0	-0.206
Mof_H 	H 	0.4673	0.964	-0	0.114
Mof_N 	N 	0.459	0.05737	-0	-0.206
Mof_H 	H 	0.4673	0.036	-0	0.114
Mof_N 	N 	1.10518e-33	0.541	0.05737	-0.206
Mof_H 	H 	4.14032e-33	0.5327	0.036	0.114
Mof_N 	N 	-3.58631e-33	0.541	0.94263	-0.206
Mof_H 	H 	3.61442e-33	0.5327	0.964	0.114
Mof_N 	N 	3.5343e-33	0.459	0.94263	-0.206
Mof_H 	H 	3.61442e-33	0.4673	0.964	0.114
Mof_N 	N 	1.10518e-33	0.459	0.05737	-0.206
Mof_H 	H 	7.70062e-33	0.4673	0.036	0.114
Mof_N 	N 	1.72097e-33	0.05737	0.459	-0.206
Mof_H 	H 	8.8727e-33	0.036	0.4673	0.114
Mof_N 	N 	8.84158e-33	0.94263	0.459	-0.206
Mof_H 	H 	8.8727e-33	0.964	0.4673	0.114
Mof_N 	N 	2.02843e-33	0.94263	0.541	-0.206
Mof_H 	H 	9.11791e-33	0.964	0.5327	0.114
Mof_N 	N 	2.02843e-33	0.05737	0.541	-0.206
Mof_H 	H 	1.99731e-33	0.036	0.5327	0.114
Mof_N 	N 	0.05737	0.541	-0	-0.206
Mof_H 	H 	0.036	0.5327	-0	0.114
Mof_N 	N 	0.94263	0.541	-0	-0.206
Mof_H 	H 	0.964	0.5327	-0	0.114
Mof_N 	N 	0.94263	0.459	-0	-0.206
Mof_H 	H 	0.964	0.4673	-0	0.114
Mof_N 	N 	0.05737	0.459	-0	-0.206
Mof_H 	H 	0.036	0.4673	-0	0.114
Mof_N 	N 	0.541	7.12061e-33	0.94263	-0.206
Mof_H 	H 	0.5327	0	0.964	0.114
Mof_N 	N 	0.541	0	0.05737	-0.206
Mof_H 	H 	0.5327	0	0.036	0.114
Mof_N 	N 	0.459	0	0.05737	-0.206
Mof_H 	H 	0.4673	0	0.036	0.114
Mof_N 	N 	0.459	7.12061e-33	0.94263	-0.206
Mof_H 	H 	0.4673	0	0.964	0.114
_end
