# CIF file generated by openbabel 2.4.1, see http://openbabel.sf.net
data_I
_chemical_name_common 'image0'
_cell_length_a 33.9287
_cell_length_b 33.9287
_cell_length_c 13.6579
_cell_angle_alpha 90
_cell_angle_beta 90
_cell_angle_gamma 120
_space_group_name_H-M_alt 'P 1'
_space_group_name_Hall 'P 1'
loop_
    _symmetry_equiv_pos_as_xyz
    x,y,z
loop_
    _atom_site_label
    _atom_site_type_symbol
    _atom_site_fract_x
    _atom_site_fract_y
    _atom_site_fract_z
    _atom_site_occupancy
    Zn1     Zn   0.00665   0.30051   0.09770   1.000
    O1      O    0.04282   0.35762   0.16830   1.000
    O2      O    0.95576   0.25302   0.16900   1.000
    O3      O    0.05018   0.28265   0.05760   1.000
    O4      O    0.98327   0.30841   0.97490   1.000
    P1      P    0.04046   0.36810   0.27530   1.000
    P2      P    0.90458   0.22890   0.15465   1.000
    P3      P    0.07681   0.26677   0.11807   1.000
    O5      O    0.06646   0.35342   0.34150   1.000
    H1      H    0.05820   0.41590   0.28460   1.000
    O6      O    0.88191   0.19400   0.23400   1.000
    O7      O    0.89151   0.20926   0.05350   1.000
    H2      H    0.89030   0.26230   0.17710   1.000
    O8      O    0.07666   0.27585   0.22690   1.000
    O9      O    0.12340   0.28237   0.07570   1.000
    H3      H    0.06130   0.22820   0.12510   1.000
    Zn2     Zn   0.10695   0.33025   0.30487   1.000
    Zn3     Zn   0.83477   0.16823   0.32996   1.000
    O10     O    0.11948   0.31562   0.43470   1.000
    O11     O    0.15903   0.38038   0.24640   1.000
    O12     O    0.81291   0.19670   0.91360   1.000
    P4      P    0.13322   0.28230   0.47078   1.000
    H4      H    0.10170   0.23810   0.45020   1.000
    O13     O    0.88930   0.26190   0.17950   1.000
    Zn4     Zn   0.67332   0.63384   0.43103   1.000
    O14     O    0.70949   0.69095   0.50163   1.000
    O15     O    0.62243   0.58635   0.50233   1.000
    O16     O    0.71685   0.61598   0.39093   1.000
    O17     O    0.64994   0.64174   0.30823   1.000
    P5      P    0.70713   0.70143   0.60863   1.000
    P6      P    0.57125   0.56223   0.48798   1.000
    P7      P    0.74348   0.60010   0.45140   1.000
    O18     O    0.73313   0.68675   0.67483   1.000
    H5      H    0.72487   0.74923   0.61793   1.000
    O19     O    0.54858   0.52733   0.56733   1.000
    O20     O    0.55818   0.54259   0.38683   1.000
    H6      H    0.55697   0.59563   0.51043   1.000
    O21     O    0.74333   0.60918   0.56023   1.000
    O22     O    0.79007   0.61570   0.40903   1.000
    H7      H    0.72797   0.56153   0.45843   1.000
    Zn5     Zn   0.77362   0.66358   0.63820   1.000
    Zn6     Zn   0.50144   0.50156   0.66329   1.000
    O23     O    0.78615   0.64895   0.76803   1.000
    O24     O    0.82570   0.71371   0.57973   1.000
    O25     O    0.47958   0.53003   0.24693   1.000
    P8      P    0.79989   0.61563   0.80411   1.000
    H8      H    0.76837   0.57143   0.78353   1.000
    O26     O    0.55597   0.59523   0.51283   1.000
    Zn7     Zn   0.33999   0.96718   0.76437   1.000
    O27     O    0.37615   0.02429   0.83497   1.000
    O28     O    0.28909   0.91969   0.83567   1.000
    O29     O    0.38351   0.94932   0.72427   1.000
    O30     O    0.31660   0.97508   0.64157   1.000
    P9      P    0.37379   0.03477   0.94197   1.000
    P10     P    0.23791   0.89557   0.82132   1.000
    P11     P    0.41014   0.93344   0.78474   1.000
    O31     O    0.39979   0.02009   0.00817   1.000
    H9      H    0.39153   0.08257   0.95127   1.000
    O32     O    0.21524   0.86067   0.90067   1.000
    O33     O    0.22484   0.87593   0.72017   1.000
    H10     H    0.22363   0.92897   0.84377   1.000
    O34     O    0.40999   0.94252   0.89357   1.000
    O35     O    0.45673   0.94904   0.74237   1.000
    H11     H    0.39463   0.89487   0.79177   1.000
    Zn8     Zn   0.44028   0.99692   0.97154   1.000
    Zn9     Zn   0.16810   0.83490   0.99663   1.000
    O36     O    0.45281   0.98229   0.10137   1.000
    O37     O    0.49236   0.04705   0.91307   1.000
    O38     O    0.14624   0.86337   0.58027   1.000
    P12     P    0.46655   0.94897   0.13745   1.000
    H12     H    0.43503   0.90477   0.11687   1.000
    O39     O    0.22263   0.92857   0.84617   1.000
    Zn10    Zn   0.69949   0.70614   0.09770   1.000
    O40     O    0.64238   0.68520   0.16830   1.000
    O41     O    0.74698   0.70274   0.16900   1.000
    O42     O    0.71735   0.76753   0.05760   1.000
    O43     O    0.69159   0.67486   0.97490   1.000
    P13     P    0.63190   0.67236   0.27530   1.000
    P14     P    0.77110   0.67568   0.15465   1.000
    P15     P    0.73323   0.81004   0.11807   1.000
    O44     O    0.64658   0.71304   0.34150   1.000
    H13     H    0.58410   0.64230   0.28460   1.000
    O45     O    0.80600   0.68791   0.23400   1.000
    O46     O    0.79074   0.68225   0.05350   1.000
    H14     H    0.73770   0.62800   0.17710   1.000
    O47     O    0.72415   0.80081   0.22690   1.000
    O48     O    0.71763   0.84103   0.07570   1.000
    H15     H    0.77180   0.83310   0.12510   1.000
    Zn11    Zn   0.66975   0.77670   0.30487   1.000
    Zn12    Zn   0.83177   0.66654   0.32996   1.000
    O49     O    0.68438   0.80386   0.43470   1.000
    O50     O    0.61962   0.77865   0.24640   1.000
    O51     O    0.80330   0.61621   0.91360   1.000
    P16     P    0.71770   0.85092   0.47078   1.000
    H16     H    0.76190   0.86360   0.45020   1.000
    O52     O    0.73810   0.62740   0.17950   1.000
    Zn13    Zn   0.36616   0.03948   0.43103   1.000
    O53     O    0.30905   0.01853   0.50163   1.000
    O54     O    0.41365   0.03607   0.50233   1.000
    O55     O    0.38402   0.10086   0.39093   1.000
    O56     O    0.35826   0.00819   0.30823   1.000
    P17     P    0.29857   0.00569   0.60863   1.000
    P18     P    0.43777   0.00901   0.48798   1.000
    P19     P    0.39990   0.14337   0.45140   1.000
    O57     O    0.31325   0.04637   0.67483   1.000
    H17     H    0.25077   0.97563   0.61793   1.000
    O58     O    0.47267   0.02124   0.56733   1.000
    O59     O    0.45741   0.01558   0.38683   1.000
    H18     H    0.40437   0.96133   0.51043   1.000
    O60     O    0.39082   0.13414   0.56023   1.000
    O61     O    0.38430   0.17436   0.40903   1.000
    H19     H    0.43847   0.16643   0.45843   1.000
    Zn14    Zn   0.33642   0.11003   0.63820   1.000
    Zn15    Zn   0.49844   0.99987   0.66329   1.000
    O62     O    0.35105   0.13719   0.76803   1.000
    O63     O    0.28629   0.11198   0.57973   1.000
    O64     O    0.46997   0.94954   0.24693   1.000
    P20     P    0.38437   0.18425   0.80411   1.000
    H20     H    0.42857   0.19693   0.78353   1.000
    O65     O    0.40477   0.96073   0.51283   1.000
    Zn16    Zn   0.03282   0.37281   0.76437   1.000
    O66     O    0.97571   0.35187   0.83497   1.000
    O67     O    0.08031   0.36941   0.83567   1.000
    O68     O    0.05068   0.43420   0.72427   1.000
    O69     O    0.02492   0.34153   0.64157   1.000
    P21     P    0.96523   0.33903   0.94197   1.000
    P22     P    0.10443   0.34235   0.82132   1.000
    P23     P    0.06656   0.47671   0.78474   1.000
    O70     O    0.97991   0.37971   0.00817   1.000
    H21     H    0.91743   0.30897   0.95127   1.000
    O71     O    0.13933   0.35458   0.90067   1.000
    O72     O    0.12407   0.34892   0.72017   1.000
    H22     H    0.07103   0.29467   0.84377   1.000
    O73     O    0.05748   0.46748   0.89357   1.000
    O74     O    0.05096   0.50770   0.74237   1.000
    H23     H    0.10513   0.49977   0.79177   1.000
    Zn17    Zn   0.00308   0.44337   0.97154   1.000
    Zn18    Zn   0.16510   0.33321   0.99663   1.000
    O75     O    0.01771   0.47053   0.10137   1.000
    O76     O    0.95295   0.44532   0.91307   1.000
    O77     O    0.13663   0.28288   0.58027   1.000
    P24     P    0.05103   0.51759   0.13745   1.000
    H24     H    0.09523   0.53027   0.11687   1.000
    O78     O    0.07143   0.29407   0.84617   1.000
    Zn19    Zn   0.29386   0.99335   0.09770   1.000
    O79     O    0.31480   0.95718   0.16830   1.000
    O80     O    0.29726   0.04424   0.16900   1.000
    O81     O    0.23247   0.94982   0.05760   1.000
    O82     O    0.32514   0.01673   0.97490   1.000
    P25     P    0.32764   0.95954   0.27530   1.000
    P26     P    0.32432   0.09542   0.15465   1.000
    P27     P    0.18996   0.92319   0.11807   1.000
    O83     O    0.28696   0.93354   0.34150   1.000
    H25     H    0.35770   0.94180   0.28460   1.000
    O84     O    0.31209   0.11809   0.23400   1.000
    O85     O    0.31775   0.10849   0.05350   1.000
    H26     H    0.37200   0.10970   0.17710   1.000
    O86     O    0.19919   0.92334   0.22690   1.000
    O87     O    0.15897   0.87660   0.07570   1.000
    H27     H    0.16690   0.93870   0.12510   1.000
    Zn20    Zn   0.22330   0.89305   0.30487   1.000
    Zn21    Zn   0.33346   0.16523   0.32996   1.000
    O88     O    0.19614   0.88052   0.43470   1.000
    O89     O    0.22135   0.84097   0.24640   1.000
    O90     O    0.38379   0.18709   0.91360   1.000
    P28     P    0.14908   0.86678   0.47078   1.000
    H28     H    0.13640   0.89830   0.45020   1.000
    O91     O    0.37260   0.11070   0.17950   1.000
    Zn22    Zn   0.96052   0.32668   0.43103   1.000
    O92     O    0.98147   0.29051   0.50163   1.000
    O93     O    0.96393   0.37757   0.50233   1.000
    O94     O    0.89914   0.28315   0.39093   1.000
    O95     O    0.99181   0.35006   0.30823   1.000
    P29     P    0.99431   0.29287   0.60863   1.000
    P30     P    0.99099   0.42875   0.48798   1.000
    P31     P    0.85663   0.25652   0.45140   1.000
    O96     O    0.95363   0.26687   0.67483   1.000
    H29     H    0.02437   0.27513   0.61793   1.000
    O97     O    0.97876   0.45142   0.56733   1.000
    O98     O    0.98442   0.44182   0.38683   1.000
    H30     H    0.03867   0.44303   0.51043   1.000
    O99     O    0.86586   0.25667   0.56023   1.000
    O100    O    0.82564   0.20993   0.40903   1.000
    H31     H    0.83357   0.27203   0.45843   1.000
    Zn23    Zn   0.88997   0.22638   0.63820   1.000
    Zn24    Zn   0.00013   0.49856   0.66329   1.000
    O101    O    0.86281   0.21385   0.76803   1.000
    O102    O    0.88802   0.17430   0.57973   1.000
    O103    O    0.05046   0.52042   0.24693   1.000
    P32     P    0.81575   0.20011   0.80411   1.000
    H32     H    0.80307   0.23163   0.78353   1.000
    O104    O    0.03927   0.44403   0.51283   1.000
    Zn25    Zn   0.62719   0.66001   0.76437   1.000
    O105    O    0.64813   0.62385   0.83497   1.000
    O106    O    0.63059   0.71091   0.83567   1.000
    O107    O    0.56580   0.61649   0.72427   1.000
    O108    O    0.65847   0.68340   0.64157   1.000
    P33     P    0.66097   0.62621   0.94197   1.000
    P34     P    0.65765   0.76209   0.82132   1.000
    P35     P    0.52329   0.58986   0.78474   1.000
    O109    O    0.62029   0.60021   0.00817   1.000
    H33     H    0.69103   0.60847   0.95127   1.000
    O110    O    0.64542   0.78476   0.90067   1.000
    O111    O    0.65108   0.77516   0.72017   1.000
    H34     H    0.70533   0.77637   0.84377   1.000
    O112    O    0.53252   0.59001   0.89357   1.000
    O113    O    0.49230   0.54327   0.74237   1.000
    H35     H    0.50023   0.60537   0.79177   1.000
    Zn26    Zn   0.55663   0.55972   0.97154   1.000
    Zn27    Zn   0.66679   0.83190   0.99663   1.000
    O114    O    0.52947   0.54719   0.10137   1.000
    O115    O    0.55468   0.50764   0.91307   1.000
    O116    O    0.71712   0.85376   0.58027   1.000
    P36     P    0.48241   0.53345   0.13745   1.000
    H36     H    0.46973   0.56497   0.11687   1.000
    O117    O    0.70593   0.77737   0.84617   1.000
    Zn28    Zn   0.99335   0.69949   0.90230   1.000
    O118    O    0.95718   0.64238   0.83170   1.000
    O119    O    0.04424   0.74698   0.83100   1.000
    O120    O    0.94982   0.71735   0.94240   1.000
    O121    O    0.01673   0.69159   0.02510   1.000
    P37     P    0.95954   0.63190   0.72470   1.000
    P38     P    0.09542   0.77110   0.84535   1.000
    P39     P    0.92319   0.73323   0.88193   1.000
    O122    O    0.93354   0.64658   0.65850   1.000
    H37     H    0.94180   0.58410   0.71540   1.000
    O123    O    0.11809   0.80600   0.76600   1.000
    O124    O    0.10849   0.79074   0.94650   1.000
    H38     H    0.10970   0.73770   0.82290   1.000
    O125    O    0.92334   0.72415   0.77310   1.000
    O126    O    0.87660   0.71763   0.92430   1.000
    H39     H    0.93870   0.77180   0.87490   1.000
    Zn29    Zn   0.89305   0.66975   0.69513   1.000
    Zn30    Zn   0.16523   0.83177   0.67004   1.000
    O127    O    0.88052   0.68438   0.56530   1.000
    O128    O    0.84097   0.61962   0.75360   1.000
    O129    O    0.18709   0.80330   0.08640   1.000
    P40     P    0.86678   0.71770   0.52922   1.000
    H40     H    0.89830   0.76190   0.54980   1.000
    O130    O    0.11070   0.73810   0.82050   1.000
    Zn31    Zn   0.66001   0.03282   0.23563   1.000
    O131    O    0.62385   0.97571   0.16503   1.000
    O132    O    0.71091   0.08031   0.16433   1.000
    O133    O    0.61649   0.05068   0.27573   1.000
    O134    O    0.68340   0.02492   0.35843   1.000
    P41     P    0.62621   0.96523   0.05803   1.000
    P42     P    0.76209   0.10443   0.17868   1.000
    P43     P    0.58986   0.06656   0.21526   1.000
    O135    O    0.60021   0.97991   0.99183   1.000
    H41     H    0.60847   0.91743   0.04873   1.000
    O136    O    0.78476   0.13933   0.09933   1.000
    O137    O    0.77516   0.12407   0.27983   1.000
    H42     H    0.77637   0.07103   0.15623   1.000
    O138    O    0.59001   0.05748   0.10643   1.000
    O139    O    0.54327   0.05096   0.25763   1.000
    H43     H    0.60537   0.10513   0.20823   1.000
    Zn32    Zn   0.55972   0.00308   0.02846   1.000
    Zn33    Zn   0.83190   0.16510   0.00337   1.000
    O140    O    0.54719   0.01771   0.89863   1.000
    O141    O    0.50764   0.95295   0.08693   1.000
    O142    O    0.85376   0.13663   0.41973   1.000
    P44     P    0.53345   0.05103   0.86255   1.000
    H44     H    0.56497   0.09523   0.88313   1.000
    O143    O    0.77737   0.07143   0.15383   1.000
    Zn34    Zn   0.32668   0.36616   0.56897   1.000
    O144    O    0.29051   0.30905   0.49837   1.000
    O145    O    0.37757   0.41365   0.49767   1.000
    O146    O    0.28315   0.38402   0.60907   1.000
    O147    O    0.35006   0.35826   0.69177   1.000
    P45     P    0.29287   0.29857   0.39137   1.000
    P46     P    0.42875   0.43777   0.51202   1.000
    P47     P    0.25652   0.39990   0.54860   1.000
    O148    O    0.26687   0.31325   0.32517   1.000
    H45     H    0.27513   0.25077   0.38207   1.000
    O149    O    0.45142   0.47267   0.43267   1.000
    O150    O    0.44182   0.45741   0.61317   1.000
    H46     H    0.44303   0.40437   0.48957   1.000
    O151    O    0.25667   0.39082   0.43977   1.000
    O152    O    0.20993   0.38430   0.59097   1.000
    H47     H    0.27203   0.43847   0.54157   1.000
    Zn35    Zn   0.22638   0.33642   0.36180   1.000
    Zn36    Zn   0.49856   0.49844   0.33671   1.000
    O153    O    0.21385   0.35105   0.23197   1.000
    O154    O    0.17430   0.28629   0.42027   1.000
    O155    O    0.52042   0.46997   0.75307   1.000
    P48     P    0.20011   0.38437   0.19589   1.000
    H48     H    0.23163   0.42857   0.21647   1.000
    O156    O    0.44403   0.40477   0.48717   1.000
    Zn37    Zn   0.30051   0.29386   0.90230   1.000
    O157    O    0.35762   0.31480   0.83170   1.000
    O158    O    0.25302   0.29726   0.83100   1.000
    O159    O    0.28265   0.23247   0.94240   1.000
    O160    O    0.30841   0.32514   0.02510   1.000
    P49     P    0.36810   0.32764   0.72470   1.000
    P50     P    0.22890   0.32432   0.84535   1.000
    P51     P    0.26677   0.18996   0.88193   1.000
    O161    O    0.35342   0.28696   0.65850   1.000
    H49     H    0.41590   0.35770   0.71540   1.000
    O162    O    0.19400   0.31209   0.76600   1.000
    O163    O    0.20926   0.31775   0.94650   1.000
    H50     H    0.26230   0.37200   0.82290   1.000
    O164    O    0.27585   0.19919   0.77310   1.000
    O165    O    0.28237   0.15897   0.92430   1.000
    H51     H    0.22820   0.16690   0.87490   1.000
    Zn38    Zn   0.33025   0.22330   0.69513   1.000
    Zn39    Zn   0.16823   0.33346   0.67004   1.000
    O166    O    0.31562   0.19614   0.56530   1.000
    O167    O    0.38038   0.22135   0.75360   1.000
    O168    O    0.19670   0.38379   0.08640   1.000
    P52     P    0.28230   0.14908   0.52922   1.000
    H52     H    0.23810   0.13640   0.54980   1.000
    O169    O    0.26190   0.37260   0.82050   1.000
    Zn40    Zn   0.96718   0.62719   0.23563   1.000
    O170    O    0.02429   0.64813   0.16503   1.000
    O171    O    0.91969   0.63059   0.16433   1.000
    O172    O    0.94932   0.56580   0.27573   1.000
    O173    O    0.97508   0.65847   0.35843   1.000
    P53     P    0.03477   0.66097   0.05803   1.000
    P54     P    0.89557   0.65765   0.17868   1.000
    P55     P    0.93344   0.52329   0.21526   1.000
    O174    O    0.02009   0.62029   0.99183   1.000
    H53     H    0.08257   0.69103   0.04873   1.000
    O175    O    0.86067   0.64542   0.09933   1.000
    O176    O    0.87593   0.65108   0.27983   1.000
    H54     H    0.92897   0.70533   0.15623   1.000
    O177    O    0.94252   0.53252   0.10643   1.000
    O178    O    0.94904   0.49230   0.25763   1.000
    H55     H    0.89487   0.50023   0.20823   1.000
    Zn41    Zn   0.99692   0.55663   0.02846   1.000
    Zn42    Zn   0.83490   0.66679   0.00337   1.000
    O179    O    0.98229   0.52947   0.89863   1.000
    O180    O    0.04705   0.55468   0.08693   1.000
    O181    O    0.86337   0.71712   0.41973   1.000
    P56     P    0.94897   0.48241   0.86255   1.000
    H56     H    0.90477   0.46973   0.88313   1.000
    O182    O    0.92857   0.70593   0.15383   1.000
    Zn43    Zn   0.63384   0.96052   0.56897   1.000
    O183    O    0.69095   0.98147   0.49837   1.000
    O184    O    0.58635   0.96393   0.49767   1.000
    O185    O    0.61598   0.89914   0.60907   1.000
    O186    O    0.64174   0.99181   0.69177   1.000
    P57     P    0.70143   0.99431   0.39137   1.000
    P58     P    0.56223   0.99099   0.51202   1.000
    P59     P    0.60010   0.85663   0.54860   1.000
    O187    O    0.68675   0.95363   0.32517   1.000
    H57     H    0.74923   0.02437   0.38207   1.000
    O188    O    0.52733   0.97876   0.43267   1.000
    O189    O    0.54259   0.98442   0.61317   1.000
    H58     H    0.59563   0.03867   0.48957   1.000
    O190    O    0.60918   0.86586   0.43977   1.000
    O191    O    0.61570   0.82564   0.59097   1.000
    H59     H    0.56153   0.83357   0.54157   1.000
    Zn44    Zn   0.66358   0.88997   0.36180   1.000
    Zn45    Zn   0.50156   0.00013   0.33671   1.000
    O192    O    0.64895   0.86281   0.23197   1.000
    O193    O    0.71371   0.88802   0.42027   1.000
    O194    O    0.53003   0.05046   0.75307   1.000
    P60     P    0.61563   0.81575   0.19589   1.000
    H60     H    0.57143   0.80307   0.21647   1.000
    O195    O    0.59523   0.03927   0.48717   1.000
    Zn46    Zn   0.70614   0.00665   0.90230   1.000
    O196    O    0.68520   0.04282   0.83170   1.000
    O197    O    0.70274   0.95576   0.83100   1.000
    O198    O    0.76753   0.05018   0.94240   1.000
    O199    O    0.67486   0.98327   0.02510   1.000
    P61     P    0.67236   0.04046   0.72470   1.000
    P62     P    0.67568   0.90458   0.84535   1.000
    P63     P    0.81004   0.07681   0.88193   1.000
    O200    O    0.71304   0.06646   0.65850   1.000
    H61     H    0.64230   0.05820   0.71540   1.000
    O201    O    0.68791   0.88191   0.76600   1.000
    O202    O    0.68225   0.89151   0.94650   1.000
    H62     H    0.62800   0.89030   0.82290   1.000
    O203    O    0.80081   0.07666   0.77310   1.000
    O204    O    0.84103   0.12340   0.92430   1.000
    H63     H    0.83310   0.06130   0.87490   1.000
    Zn47    Zn   0.77670   0.10695   0.69513   1.000
    Zn48    Zn   0.66654   0.83477   0.67004   1.000
    O205    O    0.80386   0.11948   0.56530   1.000
    O206    O    0.77865   0.15903   0.75360   1.000
    O207    O    0.61621   0.81291   0.08640   1.000
    P64     P    0.85092   0.13322   0.52922   1.000
    H64     H    0.86360   0.10170   0.54980   1.000
    O208    O    0.62740   0.88930   0.82050   1.000
    Zn49    Zn   0.37281   0.33999   0.23563   1.000
    O209    O    0.35187   0.37615   0.16503   1.000
    O210    O    0.36941   0.28909   0.16433   1.000
    O211    O    0.43420   0.38351   0.27573   1.000
    O212    O    0.34153   0.31660   0.35843   1.000
    P65     P    0.33903   0.37379   0.05803   1.000
    P66     P    0.34235   0.23791   0.17868   1.000
    P67     P    0.47671   0.41014   0.21526   1.000
    O213    O    0.37971   0.39979   0.99183   1.000
    H65     H    0.30897   0.39153   0.04873   1.000
    O214    O    0.35458   0.21524   0.09933   1.000
    O215    O    0.34892   0.22484   0.27983   1.000
    H66     H    0.29467   0.22363   0.15623   1.000
    O216    O    0.46748   0.40999   0.10643   1.000
    O217    O    0.50770   0.45673   0.25763   1.000
    H67     H    0.49977   0.39463   0.20823   1.000
    Zn50    Zn   0.44337   0.44028   0.02846   1.000
    Zn51    Zn   0.33321   0.16810   0.00337   1.000
    O218    O    0.47053   0.45281   0.89863   1.000
    O219    O    0.44532   0.49236   0.08693   1.000
    O220    O    0.28288   0.14624   0.41973   1.000
    P68     P    0.51759   0.46655   0.86255   1.000
    H68     H    0.53027   0.43503   0.88313   1.000
    O221    O    0.29407   0.22263   0.15383   1.000
    Zn52    Zn   0.03948   0.67332   0.56897   1.000
    O222    O    0.01853   0.70949   0.49837   1.000
    O223    O    0.03607   0.62243   0.49767   1.000
    O224    O    0.10086   0.71685   0.60907   1.000
    O225    O    0.00819   0.64994   0.69177   1.000
    P69     P    0.00569   0.70713   0.39137   1.000
    P70     P    0.00901   0.57125   0.51202   1.000
    P71     P    0.14337   0.74348   0.54860   1.000
    O226    O    0.04637   0.73313   0.32517   1.000
    H69     H    0.97563   0.72487   0.38207   1.000
    O227    O    0.02124   0.54858   0.43267   1.000
    O228    O    0.01558   0.55818   0.61317   1.000
    H70     H    0.96133   0.55697   0.48957   1.000
    O229    O    0.13414   0.74333   0.43977   1.000
    O230    O    0.17436   0.79007   0.59097   1.000
    H71     H    0.16643   0.72797   0.54157   1.000
    Zn53    Zn   0.11003   0.77362   0.36180   1.000
    Zn54    Zn   0.99987   0.50144   0.33671   1.000
    O231    O    0.13719   0.78615   0.23197   1.000
    O232    O    0.11198   0.82570   0.42027   1.000
    O233    O    0.94954   0.47958   0.75307   1.000
    P72     P    0.18425   0.79989   0.19589   1.000
    H72     H    0.19693   0.76837   0.21647   1.000
    O234    O    0.96073   0.55597   0.48717   1.000
