data_functionalizedCrystal
_audit_creation_method	'EQeq! by Chris Wilmer'
_symmetry_space_group_name_H-M	'P1'
_symmetry_Int_Tables_number	1
_symmetry_cell_setting	triclinic
loop_
_symmetry_equiv_pos_as_xyz
  x,y,z
_cell_length_a	10.4465
_cell_length_b	11.7859
_cell_length_c	14.6048
_cell_angle_alpha	90
_cell_angle_beta	90
_cell_angle_gamma	90
loop_
_atom_site_label
_atom_site_type_symbol
_atom_site_fract_x
_atom_site_fract_y
_atom_site_fract_z
_atom_site_charge
Mof_Zn	Zn	0.8315	0.802	0.82664	1.188
Mof_Zn	Zn	0.6685	0.198	0.32664	1.188
Mof_Zn	Zn	0.1685	0.302	0.67336	1.188
Mof_Zn	Zn	0.3315	0.698	0.17336	1.188
Mof_H 	H 	0.4698	0.4798	0.2076	-0.013
Mof_H 	H 	0.8029	0.4787	0.067	0.036
Mof_H 	H 	0.5399	0.7263	0.0309	0.018
Mof_H 	H 	0.0302	0.5202	0.7076	-0.014
Mof_H 	H 	0.6971	0.5213	0.567	0.037
Mof_H 	H 	0.9601	0.2737	0.5309	0.017
Mof_H 	H 	0.5302	0.9798	0.2924	-0.013
Mof_H 	H 	0.1971	0.9787	0.433	0.037
Mof_H 	H 	0.4601	0.2263	0.4691	0.018
Mof_H 	H 	0.9698	0.0202	0.7924	-0.013
Mof_H 	H 	0.3029	0.0213	0.933	0.038
Mof_H 	H 	0.0399	0.7737	0.9691	0.017
Mof_C 	C 	0.52557	0.51438	0.16443	0.067
Mof_C 	C 	0.64175	0.46267	0.14568	-0.118
Mof_C 	C 	0.72224	0.51182	0.08082	0.053
Mof_C 	C 	0.5659	0.6583	0.06039	0.071
Mof_C 	C 	0.7679	0.66632	0.96637	0.333
Mof_C 	C 	0.6824	0.61058	0.03649	-0.118
Mof_C 	C 	0.6833	0.35929	0.19905	0.334
Mof_C 	C 	0.97443	0.48562	0.66443	0.067
Mof_C 	C 	0.85825	0.53733	0.64568	-0.117
Mof_C 	C 	0.77776	0.48818	0.58082	0.053
Mof_C 	C 	0.9341	0.3417	0.56039	0.071
Mof_C 	C 	0.7321	0.33368	0.46637	0.333
Mof_C 	C 	0.8176	0.38942	0.53649	-0.118
Mof_C 	C 	0.8167	0.64071	0.69905	0.334
Mof_C 	C 	0.47443	0.01438	0.33557	0.064
Mof_C 	C 	0.35825	0.96267	0.35432	-0.115
Mof_C 	C 	0.27776	0.01182	0.41918	0.051
Mof_C 	C 	0.4341	0.1583	0.43961	0.071
Mof_C 	C 	0.2321	0.16632	0.53363	0.333
Mof_C 	C 	0.3176	0.11058	0.46351	-0.117
Mof_C 	C 	0.3167	0.85929	0.30095	0.333
Mof_C 	C 	0.02557	0.98562	0.83557	0.064
Mof_C 	C 	0.14175	0.03733	0.85432	-0.113
Mof_C 	C 	0.22224	0.98818	0.91918	0.049
Mof_C 	C 	0.0659	0.8417	0.93961	0.07
Mof_C 	C 	0.2679	0.83368	0.03363	0.334
Mof_C 	C 	0.1824	0.88942	0.96351	-0.117
Mof_C 	C 	0.1833	0.14071	0.80095	0.333
Mof_N 	N 	0.48822	0.61224	0.12373	-0.271
Mof_N 	N 	0.01178	0.38776	0.62373	-0.271
Mof_N 	N 	0.51178	0.11224	0.37627	-0.271
Mof_N 	N 	0.98822	0.88776	0.87627	-0.27
Mof_O 	O 	0.71643	0.74936	0.92233	-0.466
Mof_O 	O 	0.87788	0.63223	0.95605	-0.319
Mof_O 	O 	0.59435	0.3099	0.2437	-0.464
Mof_O 	O 	0.79682	0.33189	0.19835	-0.332
Mof_O 	O 	0.78357	0.25064	0.42233	-0.466
Mof_O 	O 	0.62212	0.36777	0.45605	-0.319
Mof_O 	O 	0.90565	0.6901	0.7437	-0.463
Mof_O 	O 	0.70318	0.66811	0.69835	-0.332
Mof_O 	O 	0.28357	0.24936	0.57767	-0.465
Mof_O 	O 	0.12212	0.13223	0.54395	-0.319
Mof_O 	O 	0.40565	0.8099	0.2563	-0.463
Mof_O 	O 	0.20318	0.83189	0.30165	-0.332
Mof_O 	O 	0.21643	0.75064	0.07767	-0.465
Mof_O 	O 	0.37788	0.86777	0.04395	-0.319
Mof_O 	O 	0.09435	0.1901	0.7563	-0.463
Mof_O 	O 	0.29682	0.16811	0.80165	-0.332
_end
