# CIF file generated by openbabel 2.4.1, see http://openbabel.sf.net
data_I
_chemical_name_common 'image0'
_cell_length_a 11.261
_cell_length_b 11.261
_cell_length_c 6.319
_cell_angle_alpha 90
_cell_angle_beta 90
_cell_angle_gamma 90
_space_group_name_H-M_alt 'P 1'
_space_group_name_Hall 'P 1'
loop_
    _symmetry_equiv_pos_as_xyz
    x,y,z
loop_
    _atom_site_label
    _atom_site_type_symbol
    _atom_site_fract_x
    _atom_site_fract_y
    _atom_site_fract_z
    _atom_site_occupancy
    N1      N    0.39000   0.85800   0.16800   1.000
    C1      C    0.44600   0.91620   0.26400   1.000
    C2      C    0.52070   0.99760   0.39000   1.000
    H1      H    0.51750   0.07650   0.32810   1.000
    H2      H    0.60250   0.97090   0.38590   1.000
    N2      N    0.35700   0.83500   0.25800   1.000
    C3      C    0.39600   0.88200   0.39200   1.000
    C4      C    0.45100   0.96400   0.54500   1.000
    H3      H    0.39060   0.01740   0.59870   1.000
    H4      H    0.48160   0.91860   0.66290   1.000
    N3      N    0.11000   0.64200   0.16800   1.000
    C5      C    0.05400   0.58380   0.26400   1.000
    C6      C    0.97930   0.50240   0.39000   1.000
    H5      H    0.98250   0.42350   0.32810   1.000
    H6      H    0.89750   0.52910   0.38590   1.000
    N4      N    0.14300   0.66500   0.25800   1.000
    C7      C    0.10400   0.61800   0.39200   1.000
    C8      C    0.04900   0.53600   0.54500   1.000
    H7      H    0.10940   0.48260   0.59870   1.000
    H8      H    0.01840   0.58140   0.66290   1.000
    N5      N    0.64200   0.39000   0.16800   1.000
    C9      C    0.58380   0.44600   0.26400   1.000
    C10     C    0.50240   0.52070   0.39000   1.000
    H9      H    0.42350   0.51750   0.32810   1.000
    H10     H    0.52910   0.60250   0.38590   1.000
    N6      N    0.66500   0.35700   0.25800   1.000
    C11     C    0.61800   0.39600   0.39200   1.000
    C12     C    0.53600   0.45100   0.54500   1.000
    H11     H    0.48260   0.39060   0.59870   1.000
    H12     H    0.58140   0.48160   0.66290   1.000
    N7      N    0.85800   0.11000   0.16800   1.000
    C13     C    0.91620   0.05400   0.26400   1.000
    C14     C    0.99760   0.97930   0.39000   1.000
    H13     H    0.07650   0.98250   0.32810   1.000
    H14     H    0.97090   0.89750   0.38590   1.000
    N8      N    0.83500   0.14300   0.25800   1.000
    C15     C    0.88200   0.10400   0.39200   1.000
    C16     C    0.96400   0.04900   0.54500   1.000
    H15     H    0.01740   0.10940   0.59870   1.000
    H16     H    0.91860   0.01840   0.66290   1.000
    N9      N    0.61000   0.14200   0.83200   1.000
    C17     C    0.55400   0.08380   0.73600   1.000
    C18     C    0.47930   0.00240   0.61000   1.000
    H17     H    0.48250   0.92350   0.67190   1.000
    H18     H    0.39750   0.02910   0.61410   1.000
    N10     N    0.64300   0.16500   0.74200   1.000
    C19     C    0.60400   0.11800   0.60800   1.000
    C20     C    0.54900   0.03600   0.45500   1.000
    H19     H    0.60940   0.98260   0.40130   1.000
    H20     H    0.51840   0.08140   0.33710   1.000
    N11     N    0.89000   0.35800   0.83200   1.000
    C21     C    0.94600   0.41620   0.73600   1.000
    C22     C    0.02070   0.49760   0.61000   1.000
    H21     H    0.01750   0.57650   0.67190   1.000
    H22     H    0.10250   0.47090   0.61410   1.000
    N12     N    0.85700   0.33500   0.74200   1.000
    C23     C    0.89600   0.38200   0.60800   1.000
    C24     C    0.95100   0.46400   0.45500   1.000
    H23     H    0.89060   0.51740   0.40130   1.000
    H24     H    0.98160   0.41860   0.33710   1.000
    N13     N    0.35800   0.61000   0.83200   1.000
    C25     C    0.41620   0.55400   0.73600   1.000
    C26     C    0.49760   0.47930   0.61000   1.000
    H25     H    0.57650   0.48250   0.67190   1.000
    H26     H    0.47090   0.39750   0.61410   1.000
    N14     N    0.33500   0.64300   0.74200   1.000
    C27     C    0.38200   0.60400   0.60800   1.000
    C28     C    0.46400   0.54900   0.45500   1.000
    H27     H    0.51740   0.60940   0.40130   1.000
    H28     H    0.41860   0.51840   0.33710   1.000
    N15     N    0.14200   0.89000   0.83200   1.000
    C29     C    0.08380   0.94600   0.73600   1.000
    C30     C    0.00240   0.02070   0.61000   1.000
    H29     H    0.92350   0.01750   0.67190   1.000
    H30     H    0.02910   0.10250   0.61410   1.000
    N16     N    0.16500   0.85700   0.74200   1.000
    C31     C    0.11800   0.89600   0.60800   1.000
    C32     C    0.03600   0.95100   0.45500   1.000
    H31     H    0.98260   0.89060   0.40130   1.000
    H32     H    0.08140   0.98160   0.33710   1.000
    Ag1     Ag   0.25000   0.75000   0.00000   1.000
    Ag2     Ag   0.75000   0.25000   0.00000   1.000
