# CIF file generated by openbabel 2.4.1, see http://openbabel.sf.net
data_I
_chemical_name_common 'DUXZIG01_clean'
_cell_length_a 7.4474
_cell_length_b 7.4474
_cell_length_c 13.05
_cell_angle_alpha 90
_cell_angle_beta 90
_cell_angle_gamma 90
_space_group_name_H-M_alt 'P 1'
_space_group_name_Hall 'P 1'
loop_
    _symmetry_equiv_pos_as_xyz
    x,y,z
loop_
    _atom_site_label
    _atom_site_type_symbol
    _atom_site_fract_x
    _atom_site_fract_y
    _atom_site_fract_z
    _atom_site_occupancy
    Zn1     Zn   0.00000   0.00000   0.75000   1.000
    Zn2     Zn   0.00000   0.00000   0.25000   1.000
    Ni1     Ni   0.50000   0.00000   0.00000   1.000
    Ni2     Ni   0.00000   0.50000   0.50000   1.000
    C1      C    0.67720   0.00000   0.89998   1.000
    C2      C    0.32280   0.00000   0.89998   1.000
    C3      C    0.00000   0.67720   0.39998   1.000
    C4      C    0.00000   0.32280   0.39998   1.000
    C5      C    0.32280   0.00000   0.10002   1.000
    C6      C    0.67720   0.00000   0.10002   1.000
    C7      C    0.00000   0.67720   0.60002   1.000
    C8      C    0.00000   0.32280   0.60002   1.000
    N1      N    0.78880   0.00000   0.83985   1.000
    N2      N    0.21120   0.00000   0.83985   1.000
    N3      N    0.00000   0.78880   0.33985   1.000
    N4      N    0.00000   0.21120   0.33985   1.000
    N5      N    0.21120   0.00000   0.16015   1.000
    N6      N    0.78880   0.00000   0.16015   1.000
    N7      N    0.00000   0.78880   0.66015   1.000
    N8      N    0.00000   0.21120   0.66015   1.000
