data_functionalizedCrystal
_audit_creation_method	'EQeq! by Chris Wilmer'
_symmetry_space_group_name_H-M	'P1'
_symmetry_Int_Tables_number	1
_symmetry_cell_setting	triclinic
loop_
_symmetry_equiv_pos_as_xyz
  x,y,z
_cell_length_a	45.846
_cell_length_b	45.846
_cell_length_c	37.11
_cell_angle_alpha	90
_cell_angle_beta	90
_cell_angle_gamma	120
loop_
_atom_site_label
_atom_site_type_symbol
_atom_site_fract_x
_atom_site_fract_y
_atom_site_fract_z
_atom_site_charge
Mof_Zn	Zn	0.1563	0.30302	0.2106	1.274
Mof_Zn	Zn	0.14869	0.36437	0.241	1.279
Mof_Zn	Zn	0.295	0.6327	0.7285	1.179
Mof_O 	O 	0.1415	0.3625	0.1964	-0.57
Mof_O 	O 	0.1483	0.3216	0.1741	-0.547
Mof_O 	O 	0.89	0.1959	0.7995	-0.524
Mof_O 	O 	0.8885	0.2352	0.7665	-0.539
Mof_O 	O 	0.2693	0.6064	0.7629	-0.562
Mof_O 	O 	0.2992	0.6294	0.8119	-0.596
Mof_O 	O 	0.1276	0.2656	0.2211	-0.616
Mof_O 	O 	0.1776	0.4021	0.2564	-0.572
Mof_C 	C 	0.1083	0.389	0.9573	0.082
Mof_C 	C 	0.0803	0.3656	0.9372	-0.137
Mof_C 	C 	0.0759	0.3725	0.9013	0.082
Mof_C 	C 	0.0999	0.4031	0.8855	-0.131
Mof_C 	C 	0.128	0.4267	0.9053	0.076
Mof_C 	C 	0.1321	0.4195	0.9412	-0.131
Mof_C 	C 	0.113	0.3815	0.9942	-0.031
Mof_C 	C 	0.1173	0.3753	0.0249	-0.027
Mof_C 	C 	0.1228	0.3675	0.0614	0.076
Mof_C 	C 	0.1221	0.3864	0.0908	-0.123
Mof_C 	C 	0.1279	0.3791	0.126	0.06
Mof_C 	C 	0.1348	0.3528	0.1324	-0.149
Mof_C 	C 	0.1353	0.3338	0.1027	0.06
Mof_C 	C 	0.1294	0.3412	0.0676	-0.123
Mof_C 	C 	0.1419	0.3453	0.1697	0.446
Mof_C 	C 	0.0469	0.348	0.8807	-0.031
Mof_C 	C 	0.0226	0.3272	0.8638	-0.026
Mof_C 	C 	0.9933	0.302	0.8441	0.073
Mof_C 	C 	0.9797	0.2677	0.8521	-0.123
Mof_C 	C 	0.9508	0.2433	0.834	0.058
Mof_C 	C 	0.9349	0.2526	0.8075	-0.144
Mof_C 	C 	0.9491	0.2871	0.7993	0.056
Mof_C 	C 	0.978	0.3115	0.8174	-0.119
Mof_C 	C 	0.9029	0.2265	0.7898	0.433
Mof_C 	C 	0.1531	0.4581	0.8887	-0.02
Mof_C 	C 	0.1741	0.4842	0.8747	-0.05
Mof_C 	C 	0.1993	0.515	0.8574	0.124
Mof_C 	C 	0.1951	0.5218	0.819	-0.072
Mof_C 	C 	0.2187	0.5506	0.8	0.067
Mof_C 	C 	0.2487	0.5741	0.8219	-0.395
Mof_C 	C 	0.2515	0.5722	0.855	0.156
Mof_C 	C 	0.2277	0.5432	0.873	-0.116
Mof_C 	C 	0.2748	0.604	0.8014	1.036
Mof_C 	C 	0.1024	0.1934	0.2824	0.066
Mof_C 	C 	0.0844	0.1585	0.2794	-0.13
Mof_C 	C 	0.2112	0.474	0.2569	0.061
Mof_C 	C 	0.2289	0.5094	0.2569	-0.125
Mof_H 	H 	0.064	0.345	0.948	0.082
Mof_H 	H 	0.097	0.408	0.861	0.078
Mof_H 	H 	0.151	0.436	0.955	0.078
Mof_H 	H 	0.117	0.404	0.087	0.074
Mof_H 	H 	0.127	0.392	0.146	0.023
Mof_H 	H 	0.14	0.316	0.106	0.025
Mof_H 	H 	0.13	0.328	0.048	0.075
Mof_H 	H 	0.99	0.261	0.87	0.075
Mof_H 	H 	0.942	0.22	0.84	0.025
Mof_H 	H 	0.939	0.294	0.781	0.025
Mof_H 	H 	0.987	0.335	0.812	0.072
Mof_H 	H 	0.171	0.502	0.804	0.044
Mof_H 	H 	0.217	0.557	0.771	0.037
Mof_H 	H 	0.273	0.594	0.87	0.012
Mof_H 	H 	0.233	0.543	0.903	0.054
Mof_H 	H 	0.112	0.204	0.305	0.021
Mof_H 	H 	0.082	0.146	0.301	0.076
Mof_H 	H 	0.187	0.462	0.262	0.024
Mof_H 	H 	0.217	0.521	0.262	0.075
Mof_O 	O 	0.2698	0.6248	0.7961	-0.604
Mof_O 	O 	0.3041	0.6043	0.799	-0.535
Mof_C 	C 	0.1926	0.538	0.85	-0.115
Mof_C 	C 	0.2177	0.5675	0.833	0.126
Mof_C 	C 	0.2564	0.5461	0.837	0.053
Mof_C 	C 	0.2312	0.5166	0.853	-0.077
Mof_H 	H 	0.167	0.535	0.856	0.055
Mof_H 	H 	0.21	0.587	0.829	0.015
Mof_H 	H 	0.283	0.55	0.834	0.035
Mof_H 	H 	0.235	0.495	0.863	0.047
Mof_Zn	Zn	0.69698	0.85328	0.2106	1.275
Mof_Zn	Zn	0.63563	0.78432	0.241	1.28
Mof_Zn	Zn	0.3673	0.6623	0.7285	1.179
Mof_O 	O 	0.6375	0.779	0.1964	-0.57
Mof_O 	O 	0.6784	0.8267	0.1741	-0.547
Mof_O 	O 	0.8041	0.6941	0.7995	-0.524
Mof_O 	O 	0.7648	0.6533	0.7665	-0.539
Mof_O 	O 	0.3936	0.6629	0.7629	-0.562
Mof_O 	O 	0.3706	0.6698	0.8119	-0.596
Mof_O 	O 	0.7344	0.862	0.2211	-0.616
Mof_O 	O 	0.5979	0.7755	0.2564	-0.572
Mof_C 	C 	0.611	0.7193	0.9573	0.082
Mof_C 	C 	0.6344	0.7147	0.9372	-0.137
Mof_C 	C 	0.6275	0.7034	0.9013	0.082
Mof_C 	C 	0.5969	0.6968	0.8855	-0.131
Mof_C 	C 	0.5733	0.7013	0.9053	0.076
Mof_C 	C 	0.5805	0.7126	0.9412	-0.131
Mof_C 	C 	0.6185	0.7315	0.9942	-0.031
Mof_C 	C 	0.6247	0.742	0.0249	-0.027
Mof_C 	C 	0.6325	0.7553	0.0614	0.076
Mof_C 	C 	0.6136	0.7357	0.0908	-0.123
Mof_C 	C 	0.6209	0.7488	0.126	0.06
Mof_C 	C 	0.6472	0.782	0.1324	-0.149
Mof_C 	C 	0.6662	0.8015	0.1027	0.06
Mof_C 	C 	0.6588	0.7882	0.0676	-0.123
Mof_C 	C 	0.6547	0.7966	0.1697	0.446
Mof_C 	C 	0.652	0.6989	0.8807	-0.031
Mof_C 	C 	0.6728	0.6954	0.8638	-0.026
Mof_C 	C 	0.698	0.6913	0.8441	0.073
Mof_C 	C 	0.7323	0.712	0.8521	-0.123
Mof_C 	C 	0.7567	0.7075	0.834	0.058
Mof_C 	C 	0.7474	0.6823	0.8075	-0.144
Mof_C 	C 	0.7129	0.662	0.7993	0.056
Mof_C 	C 	0.6885	0.6665	0.8174	-0.119
Mof_C 	C 	0.7735	0.6764	0.7898	0.433
Mof_C 	C 	0.5419	0.695	0.8887	-0.02
Mof_C 	C 	0.5158	0.6899	0.8747	-0.05
Mof_C 	C 	0.485	0.6843	0.8574	0.124
Mof_C 	C 	0.4782	0.6733	0.819	-0.072
Mof_C 	C 	0.4494	0.6681	0.8	0.067
Mof_C 	C 	0.4259	0.6746	0.8219	-0.395
Mof_C 	C 	0.4278	0.6793	0.855	0.156
Mof_C 	C 	0.4568	0.6845	0.873	-0.116
Mof_C 	C 	0.396	0.6708	0.8014	1.036
Mof_C 	C 	0.8066	0.909	0.2824	0.066
Mof_C 	C 	0.8415	0.9259	0.2794	-0.13
Mof_C 	C 	0.526	0.7372	0.2569	0.061
Mof_C 	C 	0.4906	0.7195	0.2569	-0.125
Mof_H 	H 	0.655	0.719	0.948	0.082
Mof_H 	H 	0.592	0.689	0.861	0.078
Mof_H 	H 	0.564	0.715	0.955	0.078
Mof_H 	H 	0.596	0.713	0.087	0.074
Mof_H 	H 	0.608	0.735	0.146	0.023
Mof_H 	H 	0.684	0.824	0.106	0.025
Mof_H 	H 	0.672	0.802	0.048	0.075
Mof_H 	H 	0.739	0.729	0.87	0.075
Mof_H 	H 	0.78	0.722	0.84	0.025
Mof_H 	H 	0.706	0.645	0.781	0.025
Mof_H 	H 	0.665	0.652	0.812	0.072
Mof_H 	H 	0.498	0.669	0.804	0.044
Mof_H 	H 	0.443	0.66	0.771	0.037
Mof_H 	H 	0.406	0.679	0.87	0.012
Mof_H 	H 	0.457	0.69	0.903	0.054
Mof_H 	H 	0.796	0.908	0.305	0.021
Mof_H 	H 	0.854	0.936	0.301	0.076
Mof_H 	H 	0.538	0.725	0.262	0.024
Mof_H 	H 	0.479	0.696	0.262	0.075
Mof_O 	O 	0.3752	0.645	0.7961	-0.604
Mof_O 	O 	0.3957	0.6998	0.799	-0.535
Mof_C 	C 	0.462	0.6546	0.85	-0.115
Mof_C 	C 	0.4325	0.6502	0.833	0.126
Mof_C 	C 	0.4539	0.7103	0.837	0.053
Mof_C 	C 	0.4834	0.7146	0.853	-0.077
Mof_H 	H 	0.465	0.632	0.856	0.055
Mof_H 	H 	0.413	0.623	0.829	0.015
Mof_H 	H 	0.45	0.733	0.834	0.035
Mof_H 	H 	0.505	0.74	0.863	0.047
Mof_Zn	Zn	0.14672	0.8437	0.2106	1.275
Mof_Zn	Zn	0.21568	0.85131	0.241	1.28
Mof_Zn	Zn	0.3377	0.705	0.7285	1.179
Mof_O 	O 	0.221	0.8585	0.1964	-0.57
Mof_O 	O 	0.1733	0.8517	0.1741	-0.547
Mof_O 	O 	0.3059	0.11	0.7995	-0.524
Mof_O 	O 	0.3467	0.1115	0.7665	-0.539
Mof_O 	O 	0.3371	0.7307	0.7629	-0.562
Mof_O 	O 	0.3302	0.7008	0.8119	-0.596
Mof_O 	O 	0.138	0.8724	0.2211	-0.616
Mof_O 	O 	0.2245	0.8224	0.2564	-0.572
Mof_C 	C 	0.2807	0.8917	0.9573	0.082
Mof_C 	C 	0.2853	0.9197	0.9372	-0.137
Mof_C 	C 	0.2966	0.9241	0.9013	0.082
Mof_C 	C 	0.3032	0.9001	0.8855	-0.131
Mof_C 	C 	0.2987	0.872	0.9053	0.076
Mof_C 	C 	0.2874	0.8679	0.9412	-0.131
Mof_C 	C 	0.2685	0.887	0.9942	-0.031
Mof_C 	C 	0.258	0.8827	0.0249	-0.027
Mof_C 	C 	0.2447	0.8772	0.0614	0.076
Mof_C 	C 	0.2643	0.8779	0.0908	-0.123
Mof_C 	C 	0.2512	0.8721	0.126	0.06
Mof_C 	C 	0.218	0.8652	0.1324	-0.149
Mof_C 	C 	0.1985	0.8647	0.1027	0.06
Mof_C 	C 	0.2118	0.8706	0.0676	-0.123
Mof_C 	C 	0.2034	0.8581	0.1697	0.446
Mof_C 	C 	0.3011	0.9531	0.8807	-0.031
Mof_C 	C 	0.3046	0.9774	0.8638	-0.026
Mof_C 	C 	0.3087	0.0067	0.8441	0.073
Mof_C 	C 	0.288	0.0203	0.8521	-0.123
Mof_C 	C 	0.2925	0.0492	0.834	0.058
Mof_C 	C 	0.3177	0.0651	0.8075	-0.144
Mof_C 	C 	0.338	0.0509	0.7993	0.056
Mof_C 	C 	0.3335	0.022	0.8174	-0.119
Mof_C 	C 	0.3236	0.0971	0.7898	0.433
Mof_C 	C 	0.305	0.8469	0.8887	-0.02
Mof_C 	C 	0.3101	0.8259	0.8747	-0.05
Mof_C 	C 	0.3157	0.8007	0.8574	0.124
Mof_C 	C 	0.3267	0.8049	0.819	-0.072
Mof_C 	C 	0.3319	0.7813	0.8	0.067
Mof_C 	C 	0.3254	0.7513	0.8219	-0.395
Mof_C 	C 	0.3207	0.7485	0.855	0.156
Mof_C 	C 	0.3155	0.7723	0.873	-0.116
Mof_C 	C 	0.3292	0.7252	0.8014	1.036
Mof_C 	C 	0.091	0.8976	0.2824	0.066
Mof_C 	C 	0.0741	0.9156	0.2794	-0.13
Mof_C 	C 	0.2628	0.7888	0.2569	0.061
Mof_C 	C 	0.2805	0.7711	0.2569	-0.125
Mof_H 	H 	0.281	0.936	0.948	0.082
Mof_H 	H 	0.311	0.903	0.861	0.078
Mof_H 	H 	0.285	0.849	0.955	0.078
Mof_H 	H 	0.287	0.883	0.087	0.074
Mof_H 	H 	0.265	0.873	0.146	0.023
Mof_H 	H 	0.176	0.86	0.106	0.025
Mof_H 	H 	0.198	0.87	0.048	0.075
Mof_H 	H 	0.271	0.01	0.87	0.075
Mof_H 	H 	0.278	0.058	0.84	0.025
Mof_H 	H 	0.355	0.061	0.781	0.025
Mof_H 	H 	0.348	0.013	0.812	0.072
Mof_H 	H 	0.331	0.829	0.804	0.044
Mof_H 	H 	0.34	0.783	0.771	0.037
Mof_H 	H 	0.321	0.727	0.87	0.012
Mof_H 	H 	0.31	0.767	0.903	0.054
Mof_H 	H 	0.092	0.888	0.305	0.021
Mof_H 	H 	0.064	0.918	0.301	0.076
Mof_H 	H 	0.275	0.813	0.262	0.024
Mof_H 	H 	0.304	0.783	0.262	0.075
Mof_O 	O 	0.355	0.7302	0.7961	-0.604
Mof_O 	O 	0.3002	0.6959	0.799	-0.535
Mof_C 	C 	0.3454	0.8074	0.85	-0.115
Mof_C 	C 	0.3498	0.7823	0.833	0.126
Mof_C 	C 	0.2897	0.7436	0.837	0.053
Mof_C 	C 	0.2854	0.7688	0.853	-0.077
Mof_H 	H 	0.368	0.833	0.856	0.055
Mof_H 	H 	0.377	0.79	0.829	0.015
Mof_H 	H 	0.267	0.717	0.834	0.035
Mof_H 	H 	0.26	0.765	0.863	0.047
Mof_Zn	Zn	0.69698	0.8437	0.2894	1.275
Mof_Zn	Zn	0.63563	0.85131	0.259	1.28
Mof_Zn	Zn	0.3673	0.705	0.7715	1.179
Mof_O 	O 	0.6375	0.8585	0.3036	-0.57
Mof_O 	O 	0.6784	0.8517	0.3259	-0.547
Mof_O 	O 	0.8041	0.11	0.7005	-0.524
Mof_O 	O 	0.7648	0.1115	0.7335	-0.539
Mof_O 	O 	0.3936	0.7307	0.7371	-0.562
Mof_O 	O 	0.3706	0.7008	0.6881	-0.596
Mof_O 	O 	0.7344	0.8724	0.2789	-0.616
Mof_O 	O 	0.5979	0.8224	0.2436	-0.572
Mof_C 	C 	0.611	0.8917	0.5427	0.082
Mof_C 	C 	0.6344	0.9197	0.5628	-0.137
Mof_C 	C 	0.6275	0.9241	0.5987	0.082
Mof_C 	C 	0.5969	0.9001	0.6145	-0.131
Mof_C 	C 	0.5733	0.872	0.5947	0.076
Mof_C 	C 	0.5805	0.8679	0.5588	-0.131
Mof_C 	C 	0.6185	0.887	0.5058	-0.031
Mof_C 	C 	0.6247	0.8827	0.4751	-0.027
Mof_C 	C 	0.6325	0.8772	0.4386	0.076
Mof_C 	C 	0.6136	0.8779	0.4092	-0.123
Mof_C 	C 	0.6209	0.8721	0.374	0.06
Mof_C 	C 	0.6472	0.8652	0.3676	-0.149
Mof_C 	C 	0.6662	0.8647	0.3973	0.06
Mof_C 	C 	0.6588	0.8706	0.4324	-0.123
Mof_C 	C 	0.6547	0.8581	0.3303	0.446
Mof_C 	C 	0.652	0.9531	0.6193	-0.031
Mof_C 	C 	0.6728	0.9774	0.6362	-0.026
Mof_C 	C 	0.698	0.0067	0.6559	0.073
Mof_C 	C 	0.7323	0.0203	0.6479	-0.123
Mof_C 	C 	0.7567	0.0492	0.666	0.058
Mof_C 	C 	0.7474	0.0651	0.6925	-0.144
Mof_C 	C 	0.7129	0.0509	0.7007	0.056
Mof_C 	C 	0.6885	0.022	0.6826	-0.119
Mof_C 	C 	0.7735	0.0971	0.7102	0.433
Mof_C 	C 	0.5419	0.8469	0.6113	-0.02
Mof_C 	C 	0.5158	0.8259	0.6253	-0.05
Mof_C 	C 	0.485	0.8007	0.6426	0.124
Mof_C 	C 	0.4782	0.8049	0.681	-0.072
Mof_C 	C 	0.4494	0.7813	0.7	0.067
Mof_C 	C 	0.4259	0.7513	0.6781	-0.395
Mof_C 	C 	0.4278	0.7485	0.645	0.156
Mof_C 	C 	0.4568	0.7723	0.627	-0.116
Mof_C 	C 	0.396	0.7252	0.6986	1.036
Mof_C 	C 	0.8066	0.8976	0.2176	0.066
Mof_C 	C 	0.8415	0.9156	0.2206	-0.13
Mof_C 	C 	0.526	0.7888	0.2431	0.061
Mof_C 	C 	0.4906	0.7711	0.2431	-0.125
Mof_H 	H 	0.655	0.936	0.552	0.082
Mof_H 	H 	0.592	0.903	0.639	0.078
Mof_H 	H 	0.564	0.849	0.545	0.078
Mof_H 	H 	0.596	0.883	0.413	0.074
Mof_H 	H 	0.608	0.873	0.354	0.023
Mof_H 	H 	0.684	0.86	0.394	0.025
Mof_H 	H 	0.672	0.87	0.452	0.075
Mof_H 	H 	0.739	0.01	0.63	0.075
Mof_H 	H 	0.78	0.058	0.66	0.025
Mof_H 	H 	0.706	0.061	0.719	0.025
Mof_H 	H 	0.665	0.013	0.688	0.072
Mof_H 	H 	0.498	0.829	0.696	0.044
Mof_H 	H 	0.443	0.783	0.729	0.037
Mof_H 	H 	0.406	0.727	0.63	0.012
Mof_H 	H 	0.457	0.767	0.597	0.054
Mof_H 	H 	0.796	0.888	0.195	0.021
Mof_H 	H 	0.854	0.918	0.199	0.076
Mof_H 	H 	0.538	0.813	0.238	0.024
Mof_H 	H 	0.479	0.783	0.238	0.075
Mof_O 	O 	0.3752	0.7302	0.7039	-0.604
Mof_O 	O 	0.3957	0.6959	0.701	-0.535
Mof_C 	C 	0.462	0.8074	0.65	-0.115
Mof_C 	C 	0.4325	0.7823	0.667	0.126
Mof_C 	C 	0.4539	0.7436	0.663	0.053
Mof_C 	C 	0.4834	0.7688	0.647	-0.077
Mof_H 	H 	0.465	0.833	0.644	0.055
Mof_H 	H 	0.413	0.79	0.671	0.015
Mof_H 	H 	0.45	0.717	0.666	0.035
Mof_H 	H 	0.505	0.765	0.637	0.047
Mof_Zn	Zn	0.14672	0.30302	0.2894	1.275
Mof_Zn	Zn	0.21568	0.36437	0.259	1.28
Mof_Zn	Zn	0.3377	0.6327	0.7715	1.179
Mof_O 	O 	0.221	0.3625	0.3036	-0.57
Mof_O 	O 	0.1733	0.3216	0.3259	-0.547
Mof_O 	O 	0.3059	0.1959	0.7005	-0.524
Mof_O 	O 	0.3467	0.2352	0.7335	-0.539
Mof_O 	O 	0.3371	0.6064	0.7371	-0.562
Mof_O 	O 	0.3302	0.6294	0.6881	-0.596
Mof_O 	O 	0.138	0.2656	0.2789	-0.616
Mof_O 	O 	0.2245	0.4021	0.2436	-0.572
Mof_C 	C 	0.2807	0.389	0.5427	0.082
Mof_C 	C 	0.2853	0.3656	0.5628	-0.137
Mof_C 	C 	0.2966	0.3725	0.5987	0.082
Mof_C 	C 	0.3032	0.4031	0.6145	-0.131
Mof_C 	C 	0.2987	0.4267	0.5947	0.076
Mof_C 	C 	0.2874	0.4195	0.5588	-0.131
Mof_C 	C 	0.2685	0.3815	0.5058	-0.031
Mof_C 	C 	0.258	0.3753	0.4751	-0.027
Mof_C 	C 	0.2447	0.3675	0.4386	0.076
Mof_C 	C 	0.2643	0.3864	0.4092	-0.123
Mof_C 	C 	0.2512	0.3791	0.374	0.06
Mof_C 	C 	0.218	0.3528	0.3676	-0.149
Mof_C 	C 	0.1985	0.3338	0.3973	0.06
Mof_C 	C 	0.2118	0.3412	0.4324	-0.123
Mof_C 	C 	0.2034	0.3453	0.3303	0.446
Mof_C 	C 	0.3011	0.348	0.6193	-0.031
Mof_C 	C 	0.3046	0.3272	0.6362	-0.026
Mof_C 	C 	0.3087	0.302	0.6559	0.073
Mof_C 	C 	0.288	0.2677	0.6479	-0.123
Mof_C 	C 	0.2925	0.2433	0.666	0.058
Mof_C 	C 	0.3177	0.2526	0.6925	-0.144
Mof_C 	C 	0.338	0.2871	0.7007	0.056
Mof_C 	C 	0.3335	0.3115	0.6826	-0.119
Mof_C 	C 	0.3236	0.2265	0.7102	0.433
Mof_C 	C 	0.305	0.4581	0.6113	-0.02
Mof_C 	C 	0.3101	0.4842	0.6253	-0.05
Mof_C 	C 	0.3157	0.515	0.6426	0.124
Mof_C 	C 	0.3267	0.5218	0.681	-0.072
Mof_C 	C 	0.3319	0.5506	0.7	0.067
Mof_C 	C 	0.3254	0.5741	0.6781	-0.395
Mof_C 	C 	0.3207	0.5722	0.645	0.156
Mof_C 	C 	0.3155	0.5432	0.627	-0.116
Mof_C 	C 	0.3292	0.604	0.6986	1.036
Mof_C 	C 	0.091	0.1934	0.2176	0.066
Mof_C 	C 	0.0741	0.1585	0.2206	-0.13
Mof_C 	C 	0.2628	0.474	0.2431	0.061
Mof_C 	C 	0.2805	0.5094	0.2431	-0.125
Mof_H 	H 	0.281	0.345	0.552	0.082
Mof_H 	H 	0.311	0.408	0.639	0.078
Mof_H 	H 	0.285	0.436	0.545	0.078
Mof_H 	H 	0.287	0.404	0.413	0.074
Mof_H 	H 	0.265	0.392	0.354	0.023
Mof_H 	H 	0.176	0.316	0.394	0.025
Mof_H 	H 	0.198	0.328	0.452	0.075
Mof_H 	H 	0.271	0.261	0.63	0.075
Mof_H 	H 	0.278	0.22	0.66	0.025
Mof_H 	H 	0.355	0.294	0.719	0.025
Mof_H 	H 	0.348	0.335	0.688	0.072
Mof_H 	H 	0.331	0.502	0.696	0.044
Mof_H 	H 	0.34	0.557	0.729	0.037
Mof_H 	H 	0.321	0.594	0.63	0.012
Mof_H 	H 	0.31	0.543	0.597	0.054
Mof_H 	H 	0.092	0.204	0.195	0.021
Mof_H 	H 	0.064	0.146	0.199	0.076
Mof_H 	H 	0.275	0.462	0.238	0.024
Mof_H 	H 	0.304	0.521	0.238	0.075
Mof_O 	O 	0.355	0.6248	0.7039	-0.604
Mof_O 	O 	0.3002	0.6043	0.701	-0.535
Mof_C 	C 	0.3454	0.538	0.65	-0.115
Mof_C 	C 	0.3498	0.5675	0.667	0.126
Mof_C 	C 	0.2897	0.5461	0.663	0.053
Mof_C 	C 	0.2854	0.5166	0.647	-0.077
Mof_H 	H 	0.368	0.535	0.644	0.055
Mof_H 	H 	0.377	0.587	0.671	0.015
Mof_H 	H 	0.267	0.55	0.666	0.035
Mof_H 	H 	0.26	0.495	0.637	0.047
Mof_Zn	Zn	0.1563	0.85328	0.2894	1.275
Mof_Zn	Zn	0.14869	0.78432	0.259	1.28
Mof_Zn	Zn	0.295	0.6623	0.7715	1.179
Mof_O 	O 	0.1415	0.779	0.3036	-0.57
Mof_O 	O 	0.1483	0.8267	0.3259	-0.547
Mof_O 	O 	0.89	0.6941	0.7005	-0.524
Mof_O 	O 	0.8885	0.6533	0.7335	-0.539
Mof_O 	O 	0.2693	0.6629	0.7371	-0.562
Mof_O 	O 	0.2992	0.6698	0.6881	-0.596
Mof_O 	O 	0.1276	0.862	0.2789	-0.616
Mof_O 	O 	0.1776	0.7755	0.2436	-0.572
Mof_C 	C 	0.1083	0.7193	0.5427	0.082
Mof_C 	C 	0.0803	0.7147	0.5628	-0.137
Mof_C 	C 	0.0759	0.7034	0.5987	0.082
Mof_C 	C 	0.0999	0.6968	0.6145	-0.131
Mof_C 	C 	0.128	0.7013	0.5947	0.076
Mof_C 	C 	0.1321	0.7126	0.5588	-0.131
Mof_C 	C 	0.113	0.7315	0.5058	-0.031
Mof_C 	C 	0.1173	0.742	0.4751	-0.027
Mof_C 	C 	0.1228	0.7553	0.4386	0.076
Mof_C 	C 	0.1221	0.7357	0.4092	-0.123
Mof_C 	C 	0.1279	0.7488	0.374	0.06
Mof_C 	C 	0.1348	0.782	0.3676	-0.149
Mof_C 	C 	0.1353	0.8015	0.3973	0.06
Mof_C 	C 	0.1294	0.7882	0.4324	-0.123
Mof_C 	C 	0.1419	0.7966	0.3303	0.446
Mof_C 	C 	0.0469	0.6989	0.6193	-0.031
Mof_C 	C 	0.0226	0.6954	0.6362	-0.026
Mof_C 	C 	0.9933	0.6913	0.6559	0.073
Mof_C 	C 	0.9797	0.712	0.6479	-0.123
Mof_C 	C 	0.9508	0.7075	0.666	0.058
Mof_C 	C 	0.9349	0.6823	0.6925	-0.144
Mof_C 	C 	0.9491	0.662	0.7007	0.056
Mof_C 	C 	0.978	0.6665	0.6826	-0.119
Mof_C 	C 	0.9029	0.6764	0.7102	0.433
Mof_C 	C 	0.1531	0.695	0.6113	-0.02
Mof_C 	C 	0.1741	0.6899	0.6253	-0.05
Mof_C 	C 	0.1993	0.6843	0.6426	0.124
Mof_C 	C 	0.1951	0.6733	0.681	-0.072
Mof_C 	C 	0.2187	0.6681	0.7	0.067
Mof_C 	C 	0.2487	0.6746	0.6781	-0.395
Mof_C 	C 	0.2515	0.6793	0.645	0.156
Mof_C 	C 	0.2277	0.6845	0.627	-0.116
Mof_C 	C 	0.2748	0.6708	0.6986	1.036
Mof_C 	C 	0.1024	0.909	0.2176	0.066
Mof_C 	C 	0.0844	0.9259	0.2206	-0.13
Mof_C 	C 	0.2112	0.7372	0.2431	0.061
Mof_C 	C 	0.2289	0.7195	0.2431	-0.125
Mof_H 	H 	0.064	0.719	0.552	0.082
Mof_H 	H 	0.097	0.689	0.639	0.078
Mof_H 	H 	0.151	0.715	0.545	0.078
Mof_H 	H 	0.117	0.713	0.413	0.074
Mof_H 	H 	0.127	0.735	0.354	0.023
Mof_H 	H 	0.14	0.824	0.394	0.025
Mof_H 	H 	0.13	0.802	0.452	0.075
Mof_H 	H 	0.99	0.729	0.63	0.075
Mof_H 	H 	0.942	0.722	0.66	0.025
Mof_H 	H 	0.939	0.645	0.719	0.025
Mof_H 	H 	0.987	0.652	0.688	0.072
Mof_H 	H 	0.171	0.669	0.696	0.044
Mof_H 	H 	0.217	0.66	0.729	0.037
Mof_H 	H 	0.273	0.679	0.63	0.012
Mof_H 	H 	0.233	0.69	0.597	0.054
Mof_H 	H 	0.112	0.908	0.195	0.021
Mof_H 	H 	0.082	0.936	0.199	0.076
Mof_H 	H 	0.187	0.725	0.238	0.024
Mof_H 	H 	0.217	0.696	0.238	0.075
Mof_O 	O 	0.2698	0.645	0.7039	-0.604
Mof_O 	O 	0.3041	0.6998	0.701	-0.535
Mof_C 	C 	0.1926	0.6546	0.65	-0.115
Mof_C 	C 	0.2177	0.6502	0.667	0.126
Mof_C 	C 	0.2564	0.7103	0.663	0.053
Mof_C 	C 	0.2312	0.7146	0.647	-0.077
Mof_H 	H 	0.167	0.632	0.644	0.055
Mof_H 	H 	0.21	0.623	0.671	0.015
Mof_H 	H 	0.283	0.733	0.666	0.035
Mof_H 	H 	0.235	0.74	0.637	0.047
Mof_Zn	Zn	0.8437	0.69698	0.7894	1.275
Mof_Zn	Zn	0.85131	0.63563	0.759	1.28
Mof_Zn	Zn	0.705	0.3673	0.2715	1.179
Mof_O 	O 	0.8585	0.6375	0.8036	-0.57
Mof_O 	O 	0.8517	0.6784	0.8259	-0.547
Mof_O 	O 	0.11	0.8041	0.2005	-0.524
Mof_O 	O 	0.1115	0.7648	0.2335	-0.539
Mof_O 	O 	0.7307	0.3936	0.2371	-0.562
Mof_O 	O 	0.7008	0.3706	0.1881	-0.596
Mof_O 	O 	0.8724	0.7344	0.7789	-0.616
Mof_O 	O 	0.8224	0.5979	0.7436	-0.572
Mof_C 	C 	0.8917	0.611	0.0427	0.082
Mof_C 	C 	0.9197	0.6344	0.0628	-0.137
Mof_C 	C 	0.9241	0.6275	0.0987	0.082
Mof_C 	C 	0.9001	0.5969	0.1145	-0.131
Mof_C 	C 	0.872	0.5733	0.0947	0.076
Mof_C 	C 	0.8679	0.5805	0.0588	-0.131
Mof_C 	C 	0.887	0.6185	0.0058	-0.031
Mof_C 	C 	0.8827	0.6247	0.9751	-0.027
Mof_C 	C 	0.8772	0.6325	0.9386	0.076
Mof_C 	C 	0.8779	0.6136	0.9092	-0.123
Mof_C 	C 	0.8721	0.6209	0.874	0.06
Mof_C 	C 	0.8652	0.6472	0.8676	-0.149
Mof_C 	C 	0.8647	0.6662	0.8973	0.06
Mof_C 	C 	0.8706	0.6588	0.9324	-0.123
Mof_C 	C 	0.8581	0.6547	0.8303	0.446
Mof_C 	C 	0.9531	0.652	0.1193	-0.031
Mof_C 	C 	0.9774	0.6728	0.1362	-0.026
Mof_C 	C 	0.0067	0.698	0.1559	0.073
Mof_C 	C 	0.0203	0.7323	0.1479	-0.123
Mof_C 	C 	0.0492	0.7567	0.166	0.058
Mof_C 	C 	0.0651	0.7474	0.1925	-0.144
Mof_C 	C 	0.0509	0.7129	0.2007	0.056
Mof_C 	C 	0.022	0.6885	0.1826	-0.119
Mof_C 	C 	0.0971	0.7735	0.2102	0.433
Mof_C 	C 	0.8469	0.5419	0.1113	-0.02
Mof_C 	C 	0.8259	0.5158	0.1253	-0.05
Mof_C 	C 	0.8007	0.485	0.1426	0.124
Mof_C 	C 	0.8049	0.4782	0.181	-0.072
Mof_C 	C 	0.7813	0.4494	0.2	0.067
Mof_C 	C 	0.7513	0.4259	0.1781	-0.395
Mof_C 	C 	0.7485	0.4278	0.145	0.156
Mof_C 	C 	0.7723	0.4568	0.127	-0.116
Mof_C 	C 	0.7252	0.396	0.1986	1.036
Mof_C 	C 	0.8976	0.8066	0.7176	0.066
Mof_C 	C 	0.9156	0.8415	0.7206	-0.13
Mof_C 	C 	0.7888	0.526	0.7431	0.061
Mof_C 	C 	0.7711	0.4906	0.7431	-0.125
Mof_H 	H 	0.936	0.655	0.052	0.082
Mof_H 	H 	0.903	0.592	0.139	0.078
Mof_H 	H 	0.849	0.564	0.045	0.078
Mof_H 	H 	0.883	0.596	0.913	0.074
Mof_H 	H 	0.873	0.608	0.854	0.023
Mof_H 	H 	0.86	0.684	0.894	0.025
Mof_H 	H 	0.87	0.672	0.952	0.075
Mof_H 	H 	0.01	0.739	0.13	0.075
Mof_H 	H 	0.058	0.78	0.16	0.025
Mof_H 	H 	0.061	0.706	0.219	0.025
Mof_H 	H 	0.013	0.665	0.188	0.072
Mof_H 	H 	0.829	0.498	0.196	0.044
Mof_H 	H 	0.783	0.443	0.229	0.037
Mof_H 	H 	0.727	0.406	0.13	0.012
Mof_H 	H 	0.767	0.457	0.097	0.054
Mof_H 	H 	0.888	0.796	0.695	0.021
Mof_H 	H 	0.918	0.854	0.699	0.076
Mof_H 	H 	0.813	0.538	0.738	0.024
Mof_H 	H 	0.783	0.479	0.738	0.075
Mof_O 	O 	0.7302	0.3752	0.2039	-0.604
Mof_O 	O 	0.6959	0.3957	0.201	-0.535
Mof_C 	C 	0.8074	0.462	0.15	-0.115
Mof_C 	C 	0.7823	0.4325	0.167	0.126
Mof_C 	C 	0.7436	0.4539	0.163	0.053
Mof_C 	C 	0.7688	0.4834	0.147	-0.077
Mof_H 	H 	0.833	0.465	0.144	0.055
Mof_H 	H 	0.79	0.413	0.171	0.015
Mof_H 	H 	0.717	0.45	0.166	0.035
Mof_H 	H 	0.765	0.505	0.137	0.047
Mof_Zn	Zn	0.30302	0.14672	0.7894	1.275
Mof_Zn	Zn	0.36437	0.21568	0.759	1.28
Mof_Zn	Zn	0.6327	0.3377	0.2715	1.179
Mof_O 	O 	0.3625	0.221	0.8036	-0.57
Mof_O 	O 	0.3216	0.1733	0.8259	-0.547
Mof_O 	O 	0.1959	0.3059	0.2005	-0.524
Mof_O 	O 	0.2352	0.3467	0.2335	-0.539
Mof_O 	O 	0.6064	0.3371	0.2371	-0.562
Mof_O 	O 	0.6294	0.3302	0.1881	-0.596
Mof_O 	O 	0.2656	0.138	0.7789	-0.616
Mof_O 	O 	0.4021	0.2245	0.7436	-0.572
Mof_C 	C 	0.389	0.2807	0.0427	0.082
Mof_C 	C 	0.3656	0.2853	0.0628	-0.137
Mof_C 	C 	0.3725	0.2966	0.0987	0.082
Mof_C 	C 	0.4031	0.3032	0.1145	-0.131
Mof_C 	C 	0.4267	0.2987	0.0947	0.076
Mof_C 	C 	0.4195	0.2874	0.0588	-0.131
Mof_C 	C 	0.3815	0.2685	0.0058	-0.031
Mof_C 	C 	0.3753	0.258	0.9751	-0.027
Mof_C 	C 	0.3675	0.2447	0.9386	0.076
Mof_C 	C 	0.3864	0.2643	0.9092	-0.123
Mof_C 	C 	0.3791	0.2512	0.874	0.06
Mof_C 	C 	0.3528	0.218	0.8676	-0.149
Mof_C 	C 	0.3338	0.1985	0.8973	0.06
Mof_C 	C 	0.3412	0.2118	0.9324	-0.123
Mof_C 	C 	0.3453	0.2034	0.8303	0.446
Mof_C 	C 	0.348	0.3011	0.1193	-0.031
Mof_C 	C 	0.3272	0.3046	0.1362	-0.026
Mof_C 	C 	0.302	0.3087	0.1559	0.073
Mof_C 	C 	0.2677	0.288	0.1479	-0.123
Mof_C 	C 	0.2433	0.2925	0.166	0.058
Mof_C 	C 	0.2526	0.3177	0.1925	-0.144
Mof_C 	C 	0.2871	0.338	0.2007	0.056
Mof_C 	C 	0.3115	0.3335	0.1826	-0.119
Mof_C 	C 	0.2265	0.3236	0.2102	0.433
Mof_C 	C 	0.4581	0.305	0.1113	-0.02
Mof_C 	C 	0.4842	0.3101	0.1253	-0.05
Mof_C 	C 	0.515	0.3157	0.1426	0.124
Mof_C 	C 	0.5218	0.3267	0.181	-0.072
Mof_C 	C 	0.5506	0.3319	0.2	0.067
Mof_C 	C 	0.5741	0.3254	0.1781	-0.395
Mof_C 	C 	0.5722	0.3207	0.145	0.156
Mof_C 	C 	0.5432	0.3155	0.127	-0.116
Mof_C 	C 	0.604	0.3292	0.1986	1.036
Mof_C 	C 	0.1934	0.091	0.7176	0.066
Mof_C 	C 	0.1585	0.0741	0.7206	-0.13
Mof_C 	C 	0.474	0.2628	0.7431	0.061
Mof_C 	C 	0.5094	0.2805	0.7431	-0.125
Mof_H 	H 	0.345	0.281	0.052	0.082
Mof_H 	H 	0.408	0.311	0.139	0.078
Mof_H 	H 	0.436	0.285	0.045	0.078
Mof_H 	H 	0.404	0.287	0.913	0.074
Mof_H 	H 	0.392	0.265	0.854	0.023
Mof_H 	H 	0.316	0.176	0.894	0.025
Mof_H 	H 	0.328	0.198	0.952	0.075
Mof_H 	H 	0.261	0.271	0.13	0.075
Mof_H 	H 	0.22	0.278	0.16	0.025
Mof_H 	H 	0.294	0.355	0.219	0.025
Mof_H 	H 	0.335	0.348	0.188	0.072
Mof_H 	H 	0.502	0.331	0.196	0.044
Mof_H 	H 	0.557	0.34	0.229	0.037
Mof_H 	H 	0.594	0.321	0.13	0.012
Mof_H 	H 	0.543	0.31	0.097	0.054
Mof_H 	H 	0.204	0.092	0.695	0.021
Mof_H 	H 	0.146	0.064	0.699	0.076
Mof_H 	H 	0.462	0.275	0.738	0.024
Mof_H 	H 	0.521	0.304	0.738	0.075
Mof_O 	O 	0.6248	0.355	0.2039	-0.604
Mof_O 	O 	0.6043	0.3002	0.201	-0.535
Mof_C 	C 	0.538	0.3454	0.15	-0.115
Mof_C 	C 	0.5675	0.3498	0.167	0.126
Mof_C 	C 	0.5461	0.2897	0.163	0.053
Mof_C 	C 	0.5166	0.2854	0.147	-0.077
Mof_H 	H 	0.535	0.368	0.144	0.055
Mof_H 	H 	0.587	0.377	0.171	0.015
Mof_H 	H 	0.55	0.267	0.166	0.035
Mof_H 	H 	0.495	0.26	0.137	0.047
Mof_Zn	Zn	0.85328	0.1563	0.7894	1.275
Mof_Zn	Zn	0.78432	0.14869	0.759	1.28
Mof_Zn	Zn	0.6623	0.295	0.2715	1.179
Mof_O 	O 	0.779	0.1415	0.8036	-0.57
Mof_O 	O 	0.8267	0.1483	0.8259	-0.547
Mof_O 	O 	0.6941	0.89	0.2005	-0.524
Mof_O 	O 	0.6533	0.8885	0.2335	-0.539
Mof_O 	O 	0.6629	0.2693	0.2371	-0.562
Mof_O 	O 	0.6698	0.2992	0.1881	-0.596
Mof_O 	O 	0.862	0.1276	0.7789	-0.616
Mof_O 	O 	0.7755	0.1776	0.7436	-0.572
Mof_C 	C 	0.7193	0.1083	0.0427	0.082
Mof_C 	C 	0.7147	0.0803	0.0628	-0.137
Mof_C 	C 	0.7034	0.0759	0.0987	0.082
Mof_C 	C 	0.6968	0.0999	0.1145	-0.131
Mof_C 	C 	0.7013	0.128	0.0947	0.076
Mof_C 	C 	0.7126	0.1321	0.0588	-0.131
Mof_C 	C 	0.7315	0.113	0.0058	-0.031
Mof_C 	C 	0.742	0.1173	0.9751	-0.027
Mof_C 	C 	0.7553	0.1228	0.9386	0.076
Mof_C 	C 	0.7357	0.1221	0.9092	-0.123
Mof_C 	C 	0.7488	0.1279	0.874	0.06
Mof_C 	C 	0.782	0.1348	0.8676	-0.149
Mof_C 	C 	0.8015	0.1353	0.8973	0.06
Mof_C 	C 	0.7882	0.1294	0.9324	-0.123
Mof_C 	C 	0.7966	0.1419	0.8303	0.446
Mof_C 	C 	0.6989	0.0469	0.1193	-0.031
Mof_C 	C 	0.6954	0.0226	0.1362	-0.026
Mof_C 	C 	0.6913	0.9933	0.1559	0.073
Mof_C 	C 	0.712	0.9797	0.1479	-0.123
Mof_C 	C 	0.7075	0.9508	0.166	0.058
Mof_C 	C 	0.6823	0.9349	0.1925	-0.144
Mof_C 	C 	0.662	0.9491	0.2007	0.056
Mof_C 	C 	0.6665	0.978	0.1826	-0.119
Mof_C 	C 	0.6764	0.9029	0.2102	0.433
Mof_C 	C 	0.695	0.1531	0.1113	-0.02
Mof_C 	C 	0.6899	0.1741	0.1253	-0.05
Mof_C 	C 	0.6843	0.1993	0.1426	0.124
Mof_C 	C 	0.6733	0.1951	0.181	-0.072
Mof_C 	C 	0.6681	0.2187	0.2	0.067
Mof_C 	C 	0.6746	0.2487	0.1781	-0.395
Mof_C 	C 	0.6793	0.2515	0.145	0.156
Mof_C 	C 	0.6845	0.2277	0.127	-0.116
Mof_C 	C 	0.6708	0.2748	0.1986	1.036
Mof_C 	C 	0.909	0.1024	0.7176	0.066
Mof_C 	C 	0.9259	0.0844	0.7206	-0.13
Mof_C 	C 	0.7372	0.2112	0.7431	0.061
Mof_C 	C 	0.7195	0.2289	0.7431	-0.125
Mof_H 	H 	0.719	0.064	0.052	0.082
Mof_H 	H 	0.689	0.097	0.139	0.078
Mof_H 	H 	0.715	0.151	0.045	0.078
Mof_H 	H 	0.713	0.117	0.913	0.074
Mof_H 	H 	0.735	0.127	0.854	0.023
Mof_H 	H 	0.824	0.14	0.894	0.025
Mof_H 	H 	0.802	0.13	0.952	0.075
Mof_H 	H 	0.729	0.99	0.13	0.075
Mof_H 	H 	0.722	0.942	0.16	0.025
Mof_H 	H 	0.645	0.939	0.219	0.025
Mof_H 	H 	0.652	0.987	0.188	0.072
Mof_H 	H 	0.669	0.171	0.196	0.044
Mof_H 	H 	0.66	0.217	0.229	0.037
Mof_H 	H 	0.679	0.273	0.13	0.012
Mof_H 	H 	0.69	0.233	0.097	0.054
Mof_H 	H 	0.908	0.112	0.695	0.021
Mof_H 	H 	0.936	0.082	0.699	0.076
Mof_H 	H 	0.725	0.187	0.738	0.024
Mof_H 	H 	0.696	0.217	0.738	0.075
Mof_O 	O 	0.645	0.2698	0.2039	-0.604
Mof_O 	O 	0.6998	0.3041	0.201	-0.535
Mof_C 	C 	0.6546	0.1926	0.15	-0.115
Mof_C 	C 	0.6502	0.2177	0.167	0.126
Mof_C 	C 	0.7103	0.2564	0.163	0.053
Mof_C 	C 	0.7146	0.2312	0.147	-0.077
Mof_H 	H 	0.632	0.167	0.144	0.055
Mof_H 	H 	0.623	0.21	0.171	0.015
Mof_H 	H 	0.733	0.283	0.166	0.035
Mof_H 	H 	0.74	0.235	0.137	0.047
Mof_Zn	Zn	0.30302	0.1563	0.7106	1.275
Mof_Zn	Zn	0.36437	0.14869	0.741	1.28
Mof_Zn	Zn	0.6327	0.295	0.2285	1.179
Mof_O 	O 	0.3625	0.1415	0.6964	-0.57
Mof_O 	O 	0.3216	0.1483	0.6741	-0.547
Mof_O 	O 	0.1959	0.89	0.2995	-0.524
Mof_O 	O 	0.2352	0.8885	0.2665	-0.539
Mof_O 	O 	0.6064	0.2693	0.2629	-0.562
Mof_O 	O 	0.6294	0.2992	0.3119	-0.596
Mof_O 	O 	0.2656	0.1276	0.7211	-0.616
Mof_O 	O 	0.4021	0.1776	0.7564	-0.572
Mof_C 	C 	0.389	0.1083	0.4573	0.082
Mof_C 	C 	0.3656	0.0803	0.4372	-0.137
Mof_C 	C 	0.3725	0.0759	0.4013	0.082
Mof_C 	C 	0.4031	0.0999	0.3855	-0.131
Mof_C 	C 	0.4267	0.128	0.4053	0.076
Mof_C 	C 	0.4195	0.1321	0.4412	-0.131
Mof_C 	C 	0.3815	0.113	0.4942	-0.031
Mof_C 	C 	0.3753	0.1173	0.5249	-0.027
Mof_C 	C 	0.3675	0.1228	0.5614	0.076
Mof_C 	C 	0.3864	0.1221	0.5908	-0.123
Mof_C 	C 	0.3791	0.1279	0.626	0.06
Mof_C 	C 	0.3528	0.1348	0.6324	-0.149
Mof_C 	C 	0.3338	0.1353	0.6027	0.06
Mof_C 	C 	0.3412	0.1294	0.5676	-0.123
Mof_C 	C 	0.3453	0.1419	0.6697	0.446
Mof_C 	C 	0.348	0.0469	0.3807	-0.031
Mof_C 	C 	0.3272	0.0226	0.3638	-0.026
Mof_C 	C 	0.302	0.9933	0.3441	0.073
Mof_C 	C 	0.2677	0.9797	0.3521	-0.123
Mof_C 	C 	0.2433	0.9508	0.334	0.058
Mof_C 	C 	0.2526	0.9349	0.3075	-0.144
Mof_C 	C 	0.2871	0.9491	0.2993	0.056
Mof_C 	C 	0.3115	0.978	0.3174	-0.119
Mof_C 	C 	0.2265	0.9029	0.2898	0.433
Mof_C 	C 	0.4581	0.1531	0.3887	-0.02
Mof_C 	C 	0.4842	0.1741	0.3747	-0.05
Mof_C 	C 	0.515	0.1993	0.3574	0.124
Mof_C 	C 	0.5218	0.1951	0.319	-0.072
Mof_C 	C 	0.5506	0.2187	0.3	0.067
Mof_C 	C 	0.5741	0.2487	0.3219	-0.395
Mof_C 	C 	0.5722	0.2515	0.355	0.156
Mof_C 	C 	0.5432	0.2277	0.373	-0.116
Mof_C 	C 	0.604	0.2748	0.3014	1.036
Mof_C 	C 	0.1934	0.1024	0.7824	0.066
Mof_C 	C 	0.1585	0.0844	0.7794	-0.13
Mof_C 	C 	0.474	0.2112	0.7569	0.061
Mof_C 	C 	0.5094	0.2289	0.7569	-0.125
Mof_H 	H 	0.345	0.064	0.448	0.082
Mof_H 	H 	0.408	0.097	0.361	0.078
Mof_H 	H 	0.436	0.151	0.455	0.078
Mof_H 	H 	0.404	0.117	0.587	0.074
Mof_H 	H 	0.392	0.127	0.646	0.023
Mof_H 	H 	0.316	0.14	0.606	0.025
Mof_H 	H 	0.328	0.13	0.548	0.075
Mof_H 	H 	0.261	0.99	0.37	0.075
Mof_H 	H 	0.22	0.942	0.34	0.025
Mof_H 	H 	0.294	0.939	0.281	0.025
Mof_H 	H 	0.335	0.987	0.312	0.072
Mof_H 	H 	0.502	0.171	0.304	0.044
Mof_H 	H 	0.557	0.217	0.271	0.037
Mof_H 	H 	0.594	0.273	0.37	0.012
Mof_H 	H 	0.543	0.233	0.403	0.054
Mof_H 	H 	0.204	0.112	0.805	0.021
Mof_H 	H 	0.146	0.082	0.801	0.076
Mof_H 	H 	0.462	0.187	0.762	0.024
Mof_H 	H 	0.521	0.217	0.762	0.075
Mof_O 	O 	0.6248	0.2698	0.2961	-0.604
Mof_O 	O 	0.6043	0.3041	0.299	-0.535
Mof_C 	C 	0.538	0.1926	0.35	-0.115
Mof_C 	C 	0.5675	0.2177	0.333	0.126
Mof_C 	C 	0.5461	0.2564	0.337	0.053
Mof_C 	C 	0.5166	0.2312	0.353	-0.077
Mof_H 	H 	0.535	0.167	0.356	0.055
Mof_H 	H 	0.587	0.21	0.329	0.015
Mof_H 	H 	0.55	0.283	0.334	0.035
Mof_H 	H 	0.495	0.235	0.363	0.047
Mof_Zn	Zn	0.85328	0.69698	0.7106	1.275
Mof_Zn	Zn	0.78432	0.63563	0.741	1.28
Mof_Zn	Zn	0.6623	0.3673	0.2285	1.179
Mof_O 	O 	0.779	0.6375	0.6964	-0.57
Mof_O 	O 	0.8267	0.6784	0.6741	-0.547
Mof_O 	O 	0.6941	0.8041	0.2995	-0.524
Mof_O 	O 	0.6533	0.7648	0.2665	-0.539
Mof_O 	O 	0.6629	0.3936	0.2629	-0.562
Mof_O 	O 	0.6698	0.3706	0.3119	-0.596
Mof_O 	O 	0.862	0.7344	0.7211	-0.616
Mof_O 	O 	0.7755	0.5979	0.7564	-0.572
Mof_C 	C 	0.7193	0.611	0.4573	0.082
Mof_C 	C 	0.7147	0.6344	0.4372	-0.137
Mof_C 	C 	0.7034	0.6275	0.4013	0.082
Mof_C 	C 	0.6968	0.5969	0.3855	-0.131
Mof_C 	C 	0.7013	0.5733	0.4053	0.076
Mof_C 	C 	0.7126	0.5805	0.4412	-0.131
Mof_C 	C 	0.7315	0.6185	0.4942	-0.031
Mof_C 	C 	0.742	0.6247	0.5249	-0.027
Mof_C 	C 	0.7553	0.6325	0.5614	0.076
Mof_C 	C 	0.7357	0.6136	0.5908	-0.123
Mof_C 	C 	0.7488	0.6209	0.626	0.06
Mof_C 	C 	0.782	0.6472	0.6324	-0.149
Mof_C 	C 	0.8015	0.6662	0.6027	0.06
Mof_C 	C 	0.7882	0.6588	0.5676	-0.123
Mof_C 	C 	0.7966	0.6547	0.6697	0.446
Mof_C 	C 	0.6989	0.652	0.3807	-0.031
Mof_C 	C 	0.6954	0.6728	0.3638	-0.026
Mof_C 	C 	0.6913	0.698	0.3441	0.073
Mof_C 	C 	0.712	0.7323	0.3521	-0.123
Mof_C 	C 	0.7075	0.7567	0.334	0.058
Mof_C 	C 	0.6823	0.7474	0.3075	-0.144
Mof_C 	C 	0.662	0.7129	0.2993	0.056
Mof_C 	C 	0.6665	0.6885	0.3174	-0.119
Mof_C 	C 	0.6764	0.7735	0.2898	0.433
Mof_C 	C 	0.695	0.5419	0.3887	-0.02
Mof_C 	C 	0.6899	0.5158	0.3747	-0.05
Mof_C 	C 	0.6843	0.485	0.3574	0.124
Mof_C 	C 	0.6733	0.4782	0.319	-0.072
Mof_C 	C 	0.6681	0.4494	0.3	0.067
Mof_C 	C 	0.6746	0.4259	0.3219	-0.395
Mof_C 	C 	0.6793	0.4278	0.355	0.156
Mof_C 	C 	0.6845	0.4568	0.373	-0.116
Mof_C 	C 	0.6708	0.396	0.3014	1.036
Mof_C 	C 	0.909	0.8066	0.7824	0.066
Mof_C 	C 	0.9259	0.8415	0.7794	-0.13
Mof_C 	C 	0.7372	0.526	0.7569	0.061
Mof_C 	C 	0.7195	0.4906	0.7569	-0.125
Mof_H 	H 	0.719	0.655	0.448	0.082
Mof_H 	H 	0.689	0.592	0.361	0.078
Mof_H 	H 	0.715	0.564	0.455	0.078
Mof_H 	H 	0.713	0.596	0.587	0.074
Mof_H 	H 	0.735	0.608	0.646	0.023
Mof_H 	H 	0.824	0.684	0.606	0.025
Mof_H 	H 	0.802	0.672	0.548	0.075
Mof_H 	H 	0.729	0.739	0.37	0.075
Mof_H 	H 	0.722	0.78	0.34	0.025
Mof_H 	H 	0.645	0.706	0.281	0.025
Mof_H 	H 	0.652	0.665	0.312	0.072
Mof_H 	H 	0.669	0.498	0.304	0.044
Mof_H 	H 	0.66	0.443	0.271	0.037
Mof_H 	H 	0.679	0.406	0.37	0.012
Mof_H 	H 	0.69	0.457	0.403	0.054
Mof_H 	H 	0.908	0.796	0.805	0.021
Mof_H 	H 	0.936	0.854	0.801	0.076
Mof_H 	H 	0.725	0.538	0.762	0.024
Mof_H 	H 	0.696	0.479	0.762	0.075
Mof_O 	O 	0.645	0.3752	0.2961	-0.604
Mof_O 	O 	0.6998	0.3957	0.299	-0.535
Mof_C 	C 	0.6546	0.462	0.35	-0.115
Mof_C 	C 	0.6502	0.4325	0.333	0.126
Mof_C 	C 	0.7103	0.4539	0.337	0.053
Mof_C 	C 	0.7146	0.4834	0.353	-0.077
Mof_H 	H 	0.632	0.465	0.356	0.055
Mof_H 	H 	0.623	0.413	0.329	0.015
Mof_H 	H 	0.733	0.45	0.334	0.035
Mof_H 	H 	0.74	0.505	0.363	0.047
Mof_Zn	Zn	0.8437	0.14672	0.7106	1.275
Mof_Zn	Zn	0.85131	0.21568	0.741	1.28
Mof_Zn	Zn	0.705	0.3377	0.2285	1.179
Mof_O 	O 	0.8585	0.221	0.6964	-0.57
Mof_O 	O 	0.8517	0.1733	0.6741	-0.547
Mof_O 	O 	0.11	0.3059	0.2995	-0.524
Mof_O 	O 	0.1115	0.3467	0.2665	-0.539
Mof_O 	O 	0.7307	0.3371	0.2629	-0.562
Mof_O 	O 	0.7008	0.3302	0.3119	-0.596
Mof_O 	O 	0.8724	0.138	0.7211	-0.616
Mof_O 	O 	0.8224	0.2245	0.7564	-0.572
Mof_C 	C 	0.8917	0.2807	0.4573	0.082
Mof_C 	C 	0.9197	0.2853	0.4372	-0.137
Mof_C 	C 	0.9241	0.2966	0.4013	0.082
Mof_C 	C 	0.9001	0.3032	0.3855	-0.131
Mof_C 	C 	0.872	0.2987	0.4053	0.076
Mof_C 	C 	0.8679	0.2874	0.4412	-0.131
Mof_C 	C 	0.887	0.2685	0.4942	-0.031
Mof_C 	C 	0.8827	0.258	0.5249	-0.027
Mof_C 	C 	0.8772	0.2447	0.5614	0.076
Mof_C 	C 	0.8779	0.2643	0.5908	-0.123
Mof_C 	C 	0.8721	0.2512	0.626	0.06
Mof_C 	C 	0.8652	0.218	0.6324	-0.149
Mof_C 	C 	0.8647	0.1985	0.6027	0.06
Mof_C 	C 	0.8706	0.2118	0.5676	-0.123
Mof_C 	C 	0.8581	0.2034	0.6697	0.446
Mof_C 	C 	0.9531	0.3011	0.3807	-0.031
Mof_C 	C 	0.9774	0.3046	0.3638	-0.026
Mof_C 	C 	0.0067	0.3087	0.3441	0.073
Mof_C 	C 	0.0203	0.288	0.3521	-0.123
Mof_C 	C 	0.0492	0.2925	0.334	0.058
Mof_C 	C 	0.0651	0.3177	0.3075	-0.144
Mof_C 	C 	0.0509	0.338	0.2993	0.056
Mof_C 	C 	0.022	0.3335	0.3174	-0.119
Mof_C 	C 	0.0971	0.3236	0.2898	0.433
Mof_C 	C 	0.8469	0.305	0.3887	-0.02
Mof_C 	C 	0.8259	0.3101	0.3747	-0.05
Mof_C 	C 	0.8007	0.3157	0.3574	0.124
Mof_C 	C 	0.8049	0.3267	0.319	-0.072
Mof_C 	C 	0.7813	0.3319	0.3	0.067
Mof_C 	C 	0.7513	0.3254	0.3219	-0.395
Mof_C 	C 	0.7485	0.3207	0.355	0.156
Mof_C 	C 	0.7723	0.3155	0.373	-0.116
Mof_C 	C 	0.7252	0.3292	0.3014	1.036
Mof_C 	C 	0.8976	0.091	0.7824	0.066
Mof_C 	C 	0.9156	0.0741	0.7794	-0.13
Mof_C 	C 	0.7888	0.2628	0.7569	0.061
Mof_C 	C 	0.7711	0.2805	0.7569	-0.125
Mof_H 	H 	0.936	0.281	0.448	0.082
Mof_H 	H 	0.903	0.311	0.361	0.078
Mof_H 	H 	0.849	0.285	0.455	0.078
Mof_H 	H 	0.883	0.287	0.587	0.074
Mof_H 	H 	0.873	0.265	0.646	0.023
Mof_H 	H 	0.86	0.176	0.606	0.025
Mof_H 	H 	0.87	0.198	0.548	0.075
Mof_H 	H 	0.01	0.271	0.37	0.075
Mof_H 	H 	0.058	0.278	0.34	0.025
Mof_H 	H 	0.061	0.355	0.281	0.025
Mof_H 	H 	0.013	0.348	0.312	0.072
Mof_H 	H 	0.829	0.331	0.304	0.044
Mof_H 	H 	0.783	0.34	0.271	0.037
Mof_H 	H 	0.727	0.321	0.37	0.012
Mof_H 	H 	0.767	0.31	0.403	0.054
Mof_H 	H 	0.888	0.092	0.805	0.021
Mof_H 	H 	0.918	0.064	0.801	0.076
Mof_H 	H 	0.813	0.275	0.762	0.024
Mof_H 	H 	0.783	0.304	0.762	0.075
Mof_O 	O 	0.7302	0.355	0.2961	-0.604
Mof_O 	O 	0.6959	0.3002	0.299	-0.535
Mof_C 	C 	0.8074	0.3454	0.35	-0.115
Mof_C 	C 	0.7823	0.3498	0.333	0.126
Mof_C 	C 	0.7436	0.2897	0.337	0.053
Mof_C 	C 	0.7688	0.2854	0.353	-0.077
Mof_H 	H 	0.833	0.368	0.356	0.055
Mof_H 	H 	0.79	0.377	0.329	0.015
Mof_H 	H 	0.717	0.267	0.334	0.035
Mof_H 	H 	0.765	0.26	0.363	0.047
Mof_O 	O 	0.16765	0.3353	0.25	-0.852
Mof_C 	C 	0.12485	0.2497	0.25	0.461
Mof_C 	C 	0.106	0.212	0.25	-0.153
Mof_C 	C 	0.06965	0.1393	0.25	0.089
Mof_C 	C 	0.0514	0.1028	0.25	-0.038
Mof_C 	C 	0.0361	0.0722	0.25	-0.022
Mof_C 	C 	0.01775	0.0355	0.25	0.07
Mof_C 	C 	0.209	0.418	0.25	0.439
Mof_C 	C 	0.2279	0.4558	0.25	-0.15
Mof_C 	C 	0.26365	0.5273	0.25	0.077
Mof_C 	C 	0.28195	0.5639	0.25	-0.027
Mof_C 	C 	0.29725	0.5945	0.25	-0.032
Mof_C 	C 	0.31555	0.6311	0.25	0.086
Mof_O 	O 	0.6647	0.83235	0.25	-0.852
Mof_C 	C 	0.7503	0.87515	0.25	0.461
Mof_C 	C 	0.788	0.894	0.25	-0.153
Mof_C 	C 	0.8607	0.93035	0.25	0.089
Mof_C 	C 	0.8972	0.9486	0.25	-0.038
Mof_C 	C 	0.9278	0.9639	0.25	-0.022
Mof_C 	C 	0.9645	0.98225	0.25	0.07
Mof_C 	C 	0.582	0.791	0.25	0.439
Mof_C 	C 	0.5442	0.7721	0.25	-0.15
Mof_C 	C 	0.4727	0.73635	0.25	0.077
Mof_C 	C 	0.4361	0.71805	0.25	-0.027
Mof_C 	C 	0.4055	0.70275	0.25	-0.032
Mof_C 	C 	0.3689	0.68445	0.25	0.086
Mof_O 	O 	0.16765	0.83235	0.25	-0.852
Mof_C 	C 	0.12485	0.87515	0.25	0.461
Mof_C 	C 	0.106	0.894	0.25	-0.153
Mof_C 	C 	0.06965	0.93035	0.25	0.089
Mof_C 	C 	0.0514	0.9486	0.25	-0.038
Mof_C 	C 	0.0361	0.9639	0.25	-0.022
Mof_C 	C 	0.01775	0.98225	0.25	0.07
Mof_C 	C 	0.209	0.791	0.25	0.439
Mof_C 	C 	0.2279	0.7721	0.25	-0.15
Mof_C 	C 	0.26365	0.73635	0.25	0.077
Mof_C 	C 	0.28195	0.71805	0.25	-0.027
Mof_C 	C 	0.29725	0.70275	0.25	-0.032
Mof_C 	C 	0.31555	0.68445	0.25	0.086
Mof_O 	O 	0.83235	0.6647	0.75	-0.852
Mof_C 	C 	0.87515	0.7503	0.75	0.461
Mof_C 	C 	0.894	0.788	0.75	-0.153
Mof_C 	C 	0.93035	0.8607	0.75	0.089
Mof_C 	C 	0.9486	0.8972	0.75	-0.038
Mof_C 	C 	0.9639	0.9278	0.75	-0.022
Mof_C 	C 	0.98225	0.9645	0.75	0.07
Mof_C 	C 	0.791	0.582	0.75	0.439
Mof_C 	C 	0.7721	0.5442	0.75	-0.15
Mof_C 	C 	0.73635	0.4727	0.75	0.077
Mof_C 	C 	0.71805	0.4361	0.75	-0.027
Mof_C 	C 	0.70275	0.4055	0.75	-0.032
Mof_C 	C 	0.68445	0.3689	0.75	0.086
Mof_O 	O 	0.3353	0.16765	0.75	-0.852
Mof_C 	C 	0.2497	0.12485	0.75	0.461
Mof_C 	C 	0.212	0.106	0.75	-0.153
Mof_C 	C 	0.1393	0.06965	0.75	0.089
Mof_C 	C 	0.1028	0.0514	0.75	-0.038
Mof_C 	C 	0.0722	0.0361	0.75	-0.022
Mof_C 	C 	0.0355	0.01775	0.75	0.07
Mof_C 	C 	0.418	0.209	0.75	0.439
Mof_C 	C 	0.4558	0.2279	0.75	-0.15
Mof_C 	C 	0.5273	0.26365	0.75	0.077
Mof_C 	C 	0.5639	0.28195	0.75	-0.027
Mof_C 	C 	0.5945	0.29725	0.75	-0.032
Mof_C 	C 	0.6311	0.31555	0.75	0.086
Mof_O 	O 	0.83235	0.16765	0.75	-0.852
Mof_C 	C 	0.87515	0.12485	0.75	0.461
Mof_C 	C 	0.894	0.106	0.75	-0.153
Mof_C 	C 	0.93035	0.06965	0.75	0.089
Mof_C 	C 	0.9486	0.0514	0.75	-0.038
Mof_C 	C 	0.9639	0.0361	0.75	-0.022
Mof_C 	C 	0.98225	0.01775	0.75	0.07
Mof_C 	C 	0.791	0.209	0.75	0.439
Mof_C 	C 	0.7721	0.2279	0.75	-0.15
Mof_C 	C 	0.73635	0.26365	0.75	0.077
Mof_C 	C 	0.71805	0.28195	0.75	-0.027
Mof_C 	C 	0.70275	0.29725	0.75	-0.032
Mof_C 	C 	0.68445	0.31555	0.75	0.086
Mof_Zn	Zn	0.33333	0.66667	0.7931	1.131
Mof_Zn	Zn	0.33333	0.66667	0.7069	1.131
Mof_Zn	Zn	0.66667	0.33333	0.2069	1.131
Mof_Zn	Zn	0.66667	0.33333	0.2931	1.131
Mof_O 	O 	0.33333	0.66667	0.75	-1.748
Mof_O 	O 	0.66667	0.33333	0.25	-1.748
Mof_C 	C 	0.0353	0.01765	0.25	-0.119
Mof_H 	H 	0.06	0.03	0.25	0.073
Mof_C 	C 	0.98235	0.01765	0.25	-0.119
Mof_H 	H 	0.97	0.03	0.25	0.073
Mof_C 	C 	0.98235	0.9647	0.25	-0.119
Mof_H 	H 	0.97	0.94	0.25	0.073
Mof_C 	C 	0.9647	0.98235	0.75	-0.119
Mof_H 	H 	0.94	0.97	0.75	0.073
Mof_C 	C 	0.01765	0.98235	0.75	-0.119
Mof_H 	H 	0.03	0.97	0.75	0.073
Mof_C 	C 	0.01765	0.0353	0.75	-0.119
Mof_H 	H 	0.03	0.06	0.75	0.073
Mof_C 	C 	0.351	0.649	0.25	-0.139
Mof_H 	H 	0.363	0.637	0.25	0.082
Mof_C 	C 	0.351	0.702	0.25	-0.139
Mof_H 	H 	0.363	0.726	0.25	0.082
Mof_C 	C 	0.298	0.649	0.25	-0.139
Mof_H 	H 	0.274	0.637	0.25	0.082
Mof_C 	C 	0.649	0.351	0.75	-0.139
Mof_H 	H 	0.637	0.363	0.75	0.082
Mof_C 	C 	0.649	0.298	0.75	-0.139
Mof_H 	H 	0.637	0.274	0.75	0.082
Mof_C 	C 	0.702	0.351	0.75	-0.139
Mof_H 	H 	0.726	0.363	0.75	0.082
_end
