# CIF file generated by openbabel 2.4.1, see http://openbabel.sf.net
data_I
_chemical_name_common 'image0'
_cell_length_a 33.2781
_cell_length_b 33.2781
_cell_length_c 13.5625
_cell_angle_alpha 90
_cell_angle_beta 90
_cell_angle_gamma 120
_space_group_name_H-M_alt 'P 1'
_space_group_name_Hall 'P 1'
loop_
    _symmetry_equiv_pos_as_xyz
    x,y,z
loop_
    _atom_site_label
    _atom_site_type_symbol
    _atom_site_fract_x
    _atom_site_fract_y
    _atom_site_fract_z
    _atom_site_occupancy
    Zn1     Zn   0.34072   0.96563   0.75420   1.000
    Zn2     Zn   0.33685   0.11047   0.63037   1.000
    Zn3     Zn   0.17005   0.83178   0.99776   1.000
    P1      P    0.29793   0.00495   0.59915   1.000
    P2      P    0.23983   0.89436   0.82648   1.000
    P3      P    0.40202   0.14648   0.44576   1.000
    P4      P    0.38829   0.18419   0.80105   1.000
    O1      O    0.31473   0.97261   0.63204   1.000
    O2      O    0.31334   0.04548   0.66704   1.000
    O3      O    0.30913   0.01878   0.49160   1.000
    O4      O    0.29180   0.91862   0.83350   1.000
    O5      O    0.22033   0.85859   0.90693   1.000
    O6      O    0.22363   0.87557   0.72472   1.000
    O7      O    0.39299   0.13362   0.55454   1.000
    O8      O    0.38206   0.17575   0.41056   1.000
    O9      O    0.38819   0.10488   0.38063   1.000
    O10     O    0.35499   0.13699   0.76144   1.000
    O11     O    0.38223   0.22167   0.75592   1.000
    O12     O    0.38872   0.18485   0.91126   1.000
    H1      H    0.24610   0.97460   0.60330   1.000
    H2      H    0.22500   0.92900   0.84590   1.000
    H3      H    0.44550   0.16860   0.43610   1.000
    H4      H    0.43460   0.19770   0.77780   1.000
    O13     O    0.24980   0.98630   0.60600   1.000
    O14     O    0.22390   0.92880   0.84760   1.000
    Zn4     Zn   0.00739   0.29896   0.08753   1.000
    Zn5     Zn   0.00352   0.44380   0.96371   1.000
    Zn6     Zn   0.83672   0.16512   0.33109   1.000
    P5      P    0.96460   0.33828   0.93248   1.000
    P6      P    0.90650   0.22769   0.15981   1.000
    P7      P    0.06869   0.47981   0.77909   1.000
    P8      P    0.05496   0.51752   0.13438   1.000
    O15     O    0.98140   0.30594   0.96537   1.000
    O16     O    0.98001   0.37881   0.00037   1.000
    O17     O    0.97580   0.35211   0.82493   1.000
    O18     O    0.95847   0.25195   0.16683   1.000
    O19     O    0.88700   0.19192   0.24026   1.000
    O20     O    0.89030   0.20890   0.05805   1.000
    O21     O    0.05966   0.46695   0.88787   1.000
    O22     O    0.04873   0.50908   0.74389   1.000
    O23     O    0.05486   0.43821   0.71396   1.000
    O24     O    0.02166   0.47032   0.09477   1.000
    O25     O    0.04890   0.55500   0.08925   1.000
    O26     O    0.05539   0.51818   0.24459   1.000
    H5      H    0.91277   0.30793   0.93663   1.000
    H6      H    0.89167   0.26233   0.17923   1.000
    H7      H    0.11217   0.50193   0.76943   1.000
    H8      H    0.10127   0.53103   0.11113   1.000
    O27     O    0.91647   0.31963   0.93933   1.000
    O28     O    0.89057   0.26213   0.18093   1.000
    Zn7     Zn   0.67406   0.63230   0.42086   1.000
    Zn8     Zn   0.67019   0.77713   0.29704   1.000
    Zn9     Zn   0.50338   0.49845   0.66443   1.000
    P9      P    0.63126   0.67162   0.26582   1.000
    P10     P    0.57317   0.56102   0.49315   1.000
    P11     P    0.73535   0.81315   0.11243   1.000
    P12     P    0.72162   0.85086   0.46772   1.000
    O29     O    0.64806   0.63928   0.29871   1.000
    O30     O    0.64667   0.71215   0.33371   1.000
    O31     O    0.64246   0.68545   0.15827   1.000
    O32     O    0.62513   0.58529   0.50017   1.000
    O33     O    0.55366   0.52526   0.57360   1.000
    O34     O    0.55696   0.54224   0.39139   1.000
    O35     O    0.72632   0.80029   0.22121   1.000
    O36     O    0.71539   0.84242   0.07723   1.000
    O37     O    0.72152   0.77155   0.04730   1.000
    O38     O    0.68832   0.80366   0.42811   1.000
    O39     O    0.71556   0.88834   0.42259   1.000
    O40     O    0.72205   0.85152   0.57793   1.000
    H9      H    0.57943   0.64127   0.26997   1.000
    H10     H    0.55833   0.59567   0.51257   1.000
    H11     H    0.77883   0.83527   0.10277   1.000
    H12     H    0.76793   0.86437   0.44447   1.000
    O41     O    0.58313   0.65297   0.27267   1.000
    O42     O    0.55723   0.59547   0.51427   1.000
    Zn10    Zn   0.03437   0.37509   0.75420   1.000
    Zn11    Zn   0.88953   0.22639   0.63037   1.000
    Zn12    Zn   0.16822   0.33827   0.99776   1.000
    P13     P    0.99505   0.29298   0.59915   1.000
    P14     P    0.10564   0.34547   0.82648   1.000
    P15     P    0.85352   0.25554   0.44576   1.000
    P16     P    0.81581   0.20410   0.80105   1.000
    O43     O    0.02739   0.34212   0.63204   1.000
    O44     O    0.95452   0.26786   0.66704   1.000
    O45     O    0.98122   0.29035   0.49160   1.000
    O46     O    0.08138   0.37318   0.83350   1.000
    O47     O    0.14141   0.36174   0.90693   1.000
    O48     O    0.12443   0.34806   0.72472   1.000
    O49     O    0.86638   0.25937   0.55454   1.000
    O50     O    0.82425   0.20631   0.41056   1.000
    O51     O    0.89512   0.28331   0.38063   1.000
    O52     O    0.86301   0.21800   0.76144   1.000
    O53     O    0.77833   0.16056   0.75592   1.000
    O54     O    0.81515   0.20387   0.91126   1.000
    H13     H    0.02540   0.27150   0.60330   1.000
    H14     H    0.07100   0.29600   0.84590   1.000
    H15     H    0.83140   0.27690   0.43610   1.000
    H16     H    0.80230   0.23690   0.77780   1.000
    O55     O    0.01370   0.26350   0.60600   1.000
    O56     O    0.07120   0.29510   0.84760   1.000
    Zn13    Zn   0.70104   0.70843   0.08753   1.000
    Zn14    Zn   0.55620   0.55972   0.96371   1.000
    Zn15    Zn   0.83488   0.67160   0.33109   1.000
    P17     P    0.66172   0.62631   0.93248   1.000
    P18     P    0.77231   0.67881   0.15981   1.000
    P19     P    0.52019   0.58887   0.77909   1.000
    P20     P    0.48248   0.53743   0.13438   1.000
    O57     O    0.69406   0.67545   0.96537   1.000
    O58     O    0.62119   0.60119   0.00037   1.000
    O59     O    0.64789   0.62368   0.82493   1.000
    O60     O    0.74805   0.70651   0.16683   1.000
    O61     O    0.80808   0.69507   0.24026   1.000
    O62     O    0.79110   0.68139   0.05805   1.000
    O63     O    0.53305   0.59270   0.88787   1.000
    O64     O    0.49092   0.53964   0.74389   1.000
    O65     O    0.56179   0.61664   0.71396   1.000
    O66     O    0.52968   0.55133   0.09477   1.000
    O67     O    0.44500   0.49389   0.08925   1.000
    O68     O    0.48182   0.53720   0.24459   1.000
    H17     H    0.69207   0.60483   0.93663   1.000
    H18     H    0.73767   0.62933   0.17923   1.000
    H19     H    0.49807   0.61023   0.76943   1.000
    H20     H    0.46897   0.57023   0.11113   1.000
    O69     O    0.68037   0.59683   0.93933   1.000
    O70     O    0.73787   0.62843   0.18093   1.000
    Zn16    Zn   0.36770   0.04176   0.42086   1.000
    Zn17    Zn   0.22287   0.89306   0.29704   1.000
    Zn18    Zn   0.50155   0.00493   0.66443   1.000
    P21     P    0.32838   0.95965   0.26582   1.000
    P22     P    0.43898   0.01214   0.49315   1.000
    P23     P    0.18685   0.92221   0.11243   1.000
    P24     P    0.14914   0.87077   0.46772   1.000
    O71     O    0.36072   0.00879   0.29871   1.000
    O72     O    0.28785   0.93453   0.33371   1.000
    O73     O    0.31455   0.95702   0.15827   1.000
    O74     O    0.41471   0.03985   0.50017   1.000
    O75     O    0.47474   0.02841   0.57360   1.000
    O76     O    0.45776   0.01473   0.39139   1.000
    O77     O    0.19971   0.92604   0.22121   1.000
    O78     O    0.15758   0.87298   0.07723   1.000
    O79     O    0.22845   0.94998   0.04730   1.000
    O80     O    0.19634   0.88467   0.42811   1.000
    O81     O    0.11166   0.82723   0.42259   1.000
    O82     O    0.14848   0.87054   0.57793   1.000
    H21     H    0.35873   0.93817   0.26997   1.000
    H22     H    0.40433   0.96267   0.51257   1.000
    H23     H    0.16473   0.94357   0.10277   1.000
    H24     H    0.13563   0.90357   0.44447   1.000
    O83     O    0.34703   0.93017   0.27267   1.000
    O84     O    0.40453   0.96177   0.51427   1.000
    Zn19    Zn   0.62491   0.65928   0.75420   1.000
    Zn20    Zn   0.77361   0.66315   0.63037   1.000
    Zn21    Zn   0.66173   0.82995   0.99776   1.000
    P25     P    0.70702   0.70207   0.59915   1.000
    P26     P    0.65453   0.76017   0.82648   1.000
    P27     P    0.74446   0.59798   0.44576   1.000
    P28     P    0.79590   0.61171   0.80105   1.000
    O85     O    0.65788   0.68527   0.63204   1.000
    O86     O    0.73214   0.68666   0.66704   1.000
    O87     O    0.70965   0.69087   0.49160   1.000
    O88     O    0.62682   0.70820   0.83350   1.000
    O89     O    0.63826   0.77967   0.90693   1.000
    O90     O    0.65194   0.77637   0.72472   1.000
    O91     O    0.74063   0.60701   0.55454   1.000
    O92     O    0.79369   0.61794   0.41056   1.000
    O93     O    0.71669   0.61181   0.38063   1.000
    O94     O    0.78200   0.64501   0.76144   1.000
    O95     O    0.83944   0.61777   0.75592   1.000
    O96     O    0.79613   0.61128   0.91126   1.000
    H25     H    0.72850   0.75390   0.60330   1.000
    H26     H    0.70400   0.77500   0.84590   1.000
    H27     H    0.72310   0.55450   0.43610   1.000
    H28     H    0.76310   0.56540   0.77780   1.000
    O97     O    0.73650   0.75020   0.60600   1.000
    O98     O    0.70490   0.77610   0.84760   1.000
    Zn22    Zn   0.29157   0.99261   0.08753   1.000
    Zn23    Zn   0.44028   0.99648   0.96371   1.000
    Zn24    Zn   0.32840   0.16328   0.33109   1.000
    P29     P    0.37369   0.03540   0.93248   1.000
    P30     P    0.32119   0.09350   0.15981   1.000
    P31     P    0.41113   0.93131   0.77909   1.000
    P32     P    0.46257   0.94504   0.13438   1.000
    O99     O    0.32455   0.01860   0.96537   1.000
    O100    O    0.39881   0.01999   0.00037   1.000
    O101    O    0.37632   0.02420   0.82493   1.000
    O102    O    0.29349   0.04153   0.16683   1.000
    O103    O    0.30493   0.11300   0.24026   1.000
    O104    O    0.31861   0.10970   0.05805   1.000
    O105    O    0.40730   0.94034   0.88787   1.000
    O106    O    0.46036   0.95127   0.74389   1.000
    O107    O    0.38336   0.94514   0.71396   1.000
    O108    O    0.44867   0.97834   0.09477   1.000
    O109    O    0.50611   0.95110   0.08925   1.000
    O110    O    0.46280   0.94461   0.24459   1.000
    H29     H    0.39517   0.08723   0.93663   1.000
    H30     H    0.37067   0.10833   0.17923   1.000
    H31     H    0.38977   0.88783   0.76943   1.000
    H32     H    0.42977   0.89873   0.11113   1.000
    O111    O    0.40317   0.08353   0.93933   1.000
    O112    O    0.37157   0.10943   0.18093   1.000
    Zn25    Zn   0.95824   0.32594   0.42086   1.000
    Zn26    Zn   0.10694   0.32981   0.29704   1.000
    Zn27    Zn   0.99507   0.49662   0.66443   1.000
    P33     P    0.04035   0.36874   0.26582   1.000
    P34     P    0.98786   0.42683   0.49315   1.000
    P35     P    0.07779   0.26465   0.11243   1.000
    P36     P    0.12923   0.27838   0.46772   1.000
    O113    O    0.99121   0.35194   0.29871   1.000
    O114    O    0.06547   0.35333   0.33371   1.000
    O115    O    0.04298   0.35754   0.15827   1.000
    O116    O    0.96015   0.37487   0.50017   1.000
    O117    O    0.97159   0.44634   0.57360   1.000
    O118    O    0.98527   0.44304   0.39139   1.000
    O119    O    0.07396   0.27368   0.22121   1.000
    O120    O    0.12702   0.28461   0.07723   1.000
    O121    O    0.05002   0.27848   0.04730   1.000
    O122    O    0.11533   0.31168   0.42811   1.000
    O123    O    0.17277   0.28444   0.42259   1.000
    O124    O    0.12946   0.27795   0.57793   1.000
    H33     H    0.06183   0.42057   0.26997   1.000
    H34     H    0.03733   0.44167   0.51257   1.000
    H35     H    0.05643   0.22117   0.10277   1.000
    H36     H    0.09643   0.23207   0.44447   1.000
    O125    O    0.06983   0.41687   0.27267   1.000
    O126    O    0.03823   0.44277   0.51427   1.000
    Zn28    Zn   0.65928   0.03437   0.24580   1.000
    Zn29    Zn   0.66314   0.88953   0.36963   1.000
    Zn30    Zn   0.82995   0.16822   0.00224   1.000
    P37     P    0.70207   0.99505   0.40085   1.000
    P38     P    0.76017   0.10564   0.17352   1.000
    P39     P    0.59798   0.85352   0.55424   1.000
    P40     P    0.61171   0.81581   0.19895   1.000
    O127    O    0.68527   0.02739   0.36796   1.000
    O128    O    0.68666   0.95452   0.33296   1.000
    O129    O    0.69087   0.98122   0.50840   1.000
    O130    O    0.70820   0.08138   0.16650   1.000
    O131    O    0.77967   0.14141   0.09307   1.000
    O132    O    0.77637   0.12443   0.27528   1.000
    O133    O    0.60701   0.86638   0.44546   1.000
    O134    O    0.61794   0.82425   0.58944   1.000
    O135    O    0.61181   0.89512   0.61937   1.000
    O136    O    0.64501   0.86301   0.23856   1.000
    O137    O    0.61777   0.77833   0.24408   1.000
    O138    O    0.61128   0.81515   0.08874   1.000
    H37     H    0.75390   0.02540   0.39670   1.000
    H38     H    0.77500   0.07100   0.15410   1.000
    H39     H    0.55450   0.83140   0.56390   1.000
    H40     H    0.56540   0.80230   0.22220   1.000
    O139    O    0.75020   0.01370   0.39400   1.000
    O140    O    0.77610   0.07120   0.15240   1.000
    Zn31    Zn   0.32594   0.36770   0.57914   1.000
    Zn32    Zn   0.32981   0.22287   0.70296   1.000
    Zn33    Zn   0.49662   0.50155   0.33557   1.000
    P41     P    0.36874   0.32838   0.73418   1.000
    P42     P    0.42683   0.43898   0.50685   1.000
    P43     P    0.26465   0.18685   0.88757   1.000
    P44     P    0.27838   0.14914   0.53228   1.000
    O141    O    0.35194   0.36072   0.70129   1.000
    O142    O    0.35333   0.28785   0.66629   1.000
    O143    O    0.35754   0.31455   0.84173   1.000
    O144    O    0.37487   0.41471   0.49983   1.000
    O145    O    0.44634   0.47474   0.42640   1.000
    O146    O    0.44304   0.45776   0.60861   1.000
    O147    O    0.27368   0.19971   0.77879   1.000
    O148    O    0.28461   0.15758   0.92277   1.000
    O149    O    0.27848   0.22845   0.95270   1.000
    O150    O    0.31168   0.19634   0.57189   1.000
    O151    O    0.28444   0.11166   0.57741   1.000
    O152    O    0.27795   0.14848   0.42207   1.000
    H41     H    0.42057   0.35873   0.73003   1.000
    H42     H    0.44167   0.40433   0.48743   1.000
    H43     H    0.22117   0.16473   0.89723   1.000
    H44     H    0.23207   0.13563   0.55553   1.000
    O153    O    0.41687   0.34703   0.72733   1.000
    O154    O    0.44277   0.40453   0.48573   1.000
    Zn34    Zn   0.99261   0.70104   0.91247   1.000
    Zn35    Zn   0.99648   0.55620   0.03629   1.000
    Zn36    Zn   0.16328   0.83488   0.66891   1.000
    P45     P    0.03540   0.66172   0.06752   1.000
    P46     P    0.09350   0.77231   0.84019   1.000
    P47     P    0.93131   0.52019   0.22091   1.000
    P48     P    0.94504   0.48248   0.86562   1.000
    O155    O    0.01860   0.69406   0.03463   1.000
    O156    O    0.01999   0.62119   0.99963   1.000
    O157    O    0.02420   0.64789   0.17507   1.000
    O158    O    0.04153   0.74805   0.83317   1.000
    O159    O    0.11300   0.80808   0.75974   1.000
    O160    O    0.10970   0.79110   0.94195   1.000
    O161    O    0.94034   0.53305   0.11213   1.000
    O162    O    0.95127   0.49092   0.25611   1.000
    O163    O    0.94514   0.56179   0.28604   1.000
    O164    O    0.97834   0.52968   0.90523   1.000
    O165    O    0.95110   0.44500   0.91075   1.000
    O166    O    0.94461   0.48182   0.75541   1.000
    H45     H    0.08723   0.69207   0.06337   1.000
    H46     H    0.10833   0.73767   0.82077   1.000
    H47     H    0.88783   0.49807   0.23057   1.000
    H48     H    0.89873   0.46897   0.88887   1.000
    O167    O    0.08353   0.68037   0.06067   1.000
    O168    O    0.10943   0.73787   0.81907   1.000
    Zn37    Zn   0.96563   0.62491   0.24580   1.000
    Zn38    Zn   0.11047   0.77361   0.36963   1.000
    Zn39    Zn   0.83178   0.66173   0.00224   1.000
    P49     P    0.00495   0.70702   0.40085   1.000
    P50     P    0.89436   0.65453   0.17352   1.000
    P51     P    0.14648   0.74446   0.55424   1.000
    P52     P    0.18419   0.79590   0.19895   1.000
    O169    O    0.97261   0.65788   0.36796   1.000
    O170    O    0.04548   0.73214   0.33296   1.000
    O171    O    0.01878   0.70965   0.50840   1.000
    O172    O    0.91862   0.62682   0.16650   1.000
    O173    O    0.85859   0.63826   0.09307   1.000
    O174    O    0.87557   0.65194   0.27528   1.000
    O175    O    0.13362   0.74063   0.44546   1.000
    O176    O    0.17575   0.79369   0.58944   1.000
    O177    O    0.10488   0.71669   0.61937   1.000
    O178    O    0.13699   0.78200   0.23856   1.000
    O179    O    0.22167   0.83944   0.24408   1.000
    O180    O    0.18485   0.79613   0.08874   1.000
    H49     H    0.97460   0.72850   0.39670   1.000
    H50     H    0.92900   0.70400   0.15410   1.000
    H51     H    0.16860   0.72310   0.56390   1.000
    H52     H    0.19770   0.76310   0.22220   1.000
    O181    O    0.98630   0.73650   0.39400   1.000
    O182    O    0.92880   0.70490   0.15240   1.000
    Zn40    Zn   0.63230   0.95824   0.57914   1.000
    Zn41    Zn   0.77713   0.10694   0.70296   1.000
    Zn42    Zn   0.49845   0.99507   0.33557   1.000
    P53     P    0.67162   0.04035   0.73418   1.000
    P54     P    0.56102   0.98786   0.50685   1.000
    P55     P    0.81315   0.07779   0.88757   1.000
    P56     P    0.85086   0.12923   0.53228   1.000
    O183    O    0.63928   0.99121   0.70129   1.000
    O184    O    0.71215   0.06547   0.66629   1.000
    O185    O    0.68545   0.04298   0.84173   1.000
    O186    O    0.58529   0.96015   0.49983   1.000
    O187    O    0.52526   0.97159   0.42640   1.000
    O188    O    0.54224   0.98527   0.60861   1.000
    O189    O    0.80029   0.07396   0.77879   1.000
    O190    O    0.84242   0.12702   0.92277   1.000
    O191    O    0.77155   0.05002   0.95270   1.000
    O192    O    0.80366   0.11533   0.57189   1.000
    O193    O    0.88834   0.17277   0.57741   1.000
    O194    O    0.85152   0.12946   0.42207   1.000
    H53     H    0.64127   0.06183   0.73003   1.000
    H54     H    0.59567   0.03733   0.48743   1.000
    H55     H    0.83527   0.05643   0.89723   1.000
    H56     H    0.86437   0.09643   0.55553   1.000
    O195    O    0.65297   0.06983   0.72733   1.000
    O196    O    0.59547   0.03823   0.48573   1.000
    Zn43    Zn   0.29896   0.29157   0.91247   1.000
    Zn44    Zn   0.44380   0.44028   0.03629   1.000
    Zn45    Zn   0.16512   0.32840   0.66891   1.000
    P57     P    0.33828   0.37369   0.06752   1.000
    P58     P    0.22769   0.32119   0.84019   1.000
    P59     P    0.47981   0.41113   0.22091   1.000
    P60     P    0.51752   0.46257   0.86562   1.000
    O197    O    0.30594   0.32455   0.03463   1.000
    O198    O    0.37881   0.39881   0.99963   1.000
    O199    O    0.35211   0.37632   0.17507   1.000
    O200    O    0.25195   0.29349   0.83317   1.000
    O201    O    0.19192   0.30493   0.75974   1.000
    O202    O    0.20890   0.31861   0.94195   1.000
    O203    O    0.46695   0.40730   0.11213   1.000
    O204    O    0.50908   0.46036   0.25611   1.000
    O205    O    0.43821   0.38336   0.28604   1.000
    O206    O    0.47032   0.44867   0.90523   1.000
    O207    O    0.55500   0.50611   0.91075   1.000
    O208    O    0.51818   0.46280   0.75541   1.000
    H57     H    0.30793   0.39517   0.06337   1.000
    H58     H    0.26233   0.37067   0.82077   1.000
    H59     H    0.50193   0.38977   0.23057   1.000
    H60     H    0.53103   0.42977   0.88887   1.000
    O209    O    0.31963   0.40317   0.06067   1.000
    O210    O    0.26213   0.37157   0.81907   1.000
    Zn46    Zn   0.37509   0.34072   0.24580   1.000
    Zn47    Zn   0.22639   0.33685   0.36963   1.000
    Zn48    Zn   0.33827   0.17005   0.00224   1.000
    P61     P    0.29298   0.29793   0.40085   1.000
    P62     P    0.34547   0.23983   0.17352   1.000
    P63     P    0.25554   0.40202   0.55424   1.000
    P64     P    0.20410   0.38829   0.19895   1.000
    O211    O    0.34212   0.31473   0.36796   1.000
    O212    O    0.26786   0.31334   0.33296   1.000
    O213    O    0.29035   0.30913   0.50840   1.000
    O214    O    0.37318   0.29180   0.16650   1.000
    O215    O    0.36174   0.22033   0.09307   1.000
    O216    O    0.34806   0.22363   0.27528   1.000
    O217    O    0.25937   0.39299   0.44546   1.000
    O218    O    0.20631   0.38206   0.58944   1.000
    O219    O    0.28331   0.38819   0.61937   1.000
    O220    O    0.21800   0.35499   0.23856   1.000
    O221    O    0.16056   0.38223   0.24408   1.000
    O222    O    0.20387   0.38872   0.08874   1.000
    H61     H    0.27150   0.24610   0.39670   1.000
    H62     H    0.29600   0.22500   0.15410   1.000
    H63     H    0.27690   0.44550   0.56390   1.000
    H64     H    0.23690   0.43460   0.22220   1.000
    O223    O    0.26350   0.24980   0.39400   1.000
    O224    O    0.29510   0.22390   0.15240   1.000
    Zn49    Zn   0.04176   0.67406   0.57914   1.000
    Zn50    Zn   0.89306   0.67019   0.70296   1.000
    Zn51    Zn   0.00493   0.50338   0.33557   1.000
    P65     P    0.95965   0.63126   0.73418   1.000
    P66     P    0.01214   0.57317   0.50685   1.000
    P67     P    0.92221   0.73535   0.88757   1.000
    P68     P    0.87077   0.72162   0.53228   1.000
    O225    O    0.00879   0.64806   0.70129   1.000
    O226    O    0.93453   0.64667   0.66629   1.000
    O227    O    0.95702   0.64246   0.84173   1.000
    O228    O    0.03985   0.62513   0.49983   1.000
    O229    O    0.02841   0.55366   0.42640   1.000
    O230    O    0.01473   0.55696   0.60861   1.000
    O231    O    0.92604   0.72632   0.77879   1.000
    O232    O    0.87298   0.71539   0.92277   1.000
    O233    O    0.94998   0.72152   0.95270   1.000
    O234    O    0.88467   0.68832   0.57189   1.000
    O235    O    0.82723   0.71556   0.57741   1.000
    O236    O    0.87054   0.72205   0.42207   1.000
    H65     H    0.93817   0.57943   0.73003   1.000
    H66     H    0.96267   0.55833   0.48743   1.000
    H67     H    0.94357   0.77883   0.89723   1.000
    H68     H    0.90357   0.76793   0.55553   1.000
    O237    O    0.93017   0.58313   0.72733   1.000
    O238    O    0.96177   0.55723   0.48573   1.000
    Zn52    Zn   0.70843   0.00739   0.91247   1.000
    Zn53    Zn   0.55972   0.00352   0.03629   1.000
    Zn54    Zn   0.67160   0.83672   0.66891   1.000
    P69     P    0.62631   0.96460   0.06752   1.000
    P70     P    0.67881   0.90650   0.84019   1.000
    P71     P    0.58887   0.06869   0.22091   1.000
    P72     P    0.53743   0.05496   0.86562   1.000
    O239    O    0.67545   0.98140   0.03463   1.000
    O240    O    0.60119   0.98001   0.99963   1.000
    O241    O    0.62368   0.97580   0.17507   1.000
    O242    O    0.70651   0.95847   0.83317   1.000
    O243    O    0.69507   0.88700   0.75974   1.000
    O244    O    0.68139   0.89030   0.94195   1.000
    O245    O    0.59270   0.05966   0.11213   1.000
    O246    O    0.53964   0.04873   0.25611   1.000
    O247    O    0.61664   0.05486   0.28604   1.000
    O248    O    0.55133   0.02166   0.90523   1.000
    O249    O    0.49389   0.04890   0.91075   1.000
    O250    O    0.53720   0.05539   0.75541   1.000
    H69     H    0.60483   0.91277   0.06337   1.000
    H70     H    0.62933   0.89167   0.82077   1.000
    H71     H    0.61023   0.11217   0.23057   1.000
    H72     H    0.57023   0.10127   0.88887   1.000
    O251    O    0.59683   0.91647   0.06067   1.000
    O252    O    0.62843   0.89057   0.81907   1.000
