data_functionalizedCrystal
_audit_creation_method	'EQeq! by Chris Wilmer'
_symmetry_space_group_name_H-M	'P1'
_symmetry_Int_Tables_number	1
_symmetry_cell_setting	triclinic
loop_
_symmetry_equiv_pos_as_xyz
  x,y,z
_cell_length_a	35.0725
_cell_length_b	14.8911
_cell_length_c	30.9658
_cell_angle_alpha	90
_cell_angle_beta	101.956
_cell_angle_gamma	90
loop_
_atom_site_label
_atom_site_type_symbol
_atom_site_fract_x
_atom_site_fract_y
_atom_site_fract_z
_atom_site_charge
Mof_I 	I 	0.85002	0.9132	0.01155	-0.349
Mof_Zn	Zn	0.87485	0.90124	0.93895	1.16
Mof_I 	I 	0.89145	0.7606	0.9067	-0.128
Mof_N 	N 	0.83405	0.9687	0.89221	-0.273
Mof_N 	N 	0.92303	0.9842	0.94394	-0.283
Mof_C 	C 	0.93635	0.0356	0.97877	0.087
Mof_C 	C 	0.9406	0.9881	0.91027	0.075
Mof_C 	C 	0.96734	0.0935	0.9803	-0.131
Mof_H 	H 	0.9242	0.0326	0.0034	-0.04
Mof_C 	C 	0.9714	0.0445	0.90886	-0.128
Mof_H 	H 	0.9316	0.9499	0.8857	-0.025
Mof_H 	H 	0.9762	0.1299	0.0056	0.075
Mof_C 	C 	0.98536	0.0979	0.94491	0.05
Mof_H 	H 	0.9828	0.0464	0.8836	0.074
Mof_C 	C 	0.0177	0.1609	0.94391	0.08
Mof_N 	N 	0.03931	0.1463	0.91392	-0.157
Mof_N 	N 	0.02231	0.2287	0.97287	-0.147
Mof_C 	C 	0.06766	0.2064	0.9141	-0.017
Mof_C 	C 	0.05061	0.2867	0.96851	0.081
Mof_C 	C 	0.09327	0.1916	0.88236	0.083
Mof_N 	N 	0.07455	0.2779	0.9404	-0.121
Mof_C 	C 	0.05492	0.3677	0.99702	0.053
Mof_C 	C 	0.08229	0.1323	0.84718	-0.232
Mof_C 	C 	0.12852	0.2363	0.88698	-0.177
Mof_C 	C 	0.02846	0.387	0.02287	-0.123
Mof_C 	C 	0.08652	0.4236	0.99889	-0.106
Mof_H 	H 	0.0582	0.101	0.8431	0.086
Mof_C 	C 	0.10707	0.1197	0.81823	0.251
Mof_H 	H 	0.1366	0.278	0.9103	0.071
Mof_C 	C 	0.15168	0.2191	0.85696	0.037
Mof_C 	C 	0.0341	0.4621	0.04962	0.074
Mof_H 	H 	0.0066	0.3491	0.0223	0.07
Mof_H 	H 	0.1052	0.4127	0.9812	0.071
Mof_C 	C 	0.09021	0.4962	0.02741	0.068
Mof_N 	N 	0.14141	0.1624	0.82283	-0.259
Mof_H 	H 	0.0995	0.0795	0.7942	-0.082
Mof_H 	H 	0.1761	0.2488	0.8606	-0.002
Mof_N 	N 	0.06489	0.5155	0.05245	-0.273
Mof_H 	H 	0.0153	0.476	0.0666	-0.013
Mof_H 	H 	0.1122	0.5344	0.0291	-0.022
Mof_Zn	Zn	0.17354	0.1457	0.77329	0.547
Mof_Zn	Zn	0.07771	0.62044	0.09766	1.158
Mof_I 	I 	0.12883	0.16664	0.6982	-0.281
Mof_I 	I 	0.2354	0.23505	0.7964	-0.258
Mof_N 	N 	0.18623	0.008	0.78096	-0.285
Mof_N 	N 	0.11841	0.5515	0.14436	-0.271
Mof_I 	I 	0.11457	0.7362	0.0581	-0.202
Mof_I 	I 	0.02207	0.6522	0.13138	-0.106
Mof_C 	C 	0.15014	0.5906	0.16822	0.054
Mof_C 	C 	0.11025	0.4678	0.1538	0.065
Mof_H 	H 	0.1562	0.6505	0.1615	-0.008
Mof_C 	C 	0.17454	0.5458	0.20263	-0.13
Mof_C 	C 	0.13329	0.4182	0.18688	-0.126
Mof_H 	H 	0.0875	0.4405	0.1369	-0.009
Mof_C 	C 	0.16623	0.458	0.21194	0.041
Mof_H 	H 	0.1967	0.5752	0.2196	0.076
Mof_H 	H 	0.1267	0.3581	0.1924	0.084
Mof_C 	C 	0.19094	0.4058	0.24772	0.095
Mof_N 	N 	0.18096	0.32033	0.25219	-0.139
Mof_N 	N 	0.22174	0.44698	0.2724	-0.142
Mof_C 	C 	0.20558	0.2745	0.2832	0.099
Mof_C 	C 	0.24251	0.3966	0.30474	0.09
Mof_N 	N 	0.236	0.3095	0.31132	-0.139
Mof_C 	C 	0.19859	0.1763	0.28416	0.061
Mof_C 	C 	0.27491	0.442	0.33486	0.049
Mof_C 	C 	0.22465	0.1184	0.30989	-0.137
Mof_C 	C 	0.16605	0.1394	0.25709	-0.134
Mof_C 	C 	0.2968	0.3981	0.3715	-0.107
Mof_C 	C 	0.28422	0.5304	0.32709	-0.124
Mof_H 	H 	0.2472	0.1409	0.3292	0.075
Mof_C 	C 	0.21721	0.0268	0.30695	0.093
Mof_C 	C 	0.16065	0.048	0.25685	0.065
Mof_H 	H 	0.1476	0.1769	0.2388	0.079
Mof_C 	C 	0.32547	0.4455	0.39927	0.081
Mof_H 	H 	0.292	0.3369	0.3772	0.087
Mof_C 	C 	0.31388	0.5724	0.35635	0.066
Mof_H 	H 	0.2703	0.5616	0.3019	0.087
Mof_H 	H 	0.2353	0.9873	0.3245	-0.102
Mof_H 	H 	0.1378	0.0237	0.2388	-0.019
Mof_H 	H 	0.3399	0.416	0.4247	0.007
Mof_H 	H 	0.3202	0.6327	0.3508	-0.027
Mof_C 	C 	0.7805	0.2948	0.4409	-4.86
Mof_H 	H 	0.7819	0.2758	0.4107	1.43
Mof_H 	H 	0.788	0.2429	0.4609	1.493
Mof_C 	C 	0.741	0.321	0.4418	5.931
Mof_H 	H 	0.7388	0.3322	0.4727	-1.975
Mof_H 	H 	0.723	0.2713	0.4301	-1.779
Mof_C 	C 	0.7291	0.4043	0.4147	-6.472
Mof_H 	H 	0.7289	0.3911	0.3833	1.711
Mof_H 	H 	0.7024	0.4215	0.4171	7.845
Mof_C 	C 	0.7557	0.4801	0.4293	4.901
Mof_H 	H 	0.7551	0.496	0.4602	-1.036
Mof_H 	H 	0.7473	0.5331	0.4105	-1.404
Mof_C 	C 	0.7961	0.4538	0.426	-3.338
Mof_H 	H 	0.8142	0.5045	0.4355	1.199
Mof_H 	H 	0.7968	0.4393	0.395	0.973
Mof_C 	C 	0.8092	0.372	0.4553	3.158
Mof_H 	H 	0.8099	0.3874	0.4866	-0.249
Mof_H 	H 	0.8357	0.3537	0.4525	-0.933
Mof_I 	I 	0.85188	0.91112	0.01026	-0.22
Mof_I 	I 	0.89084	0.75735	0.89993	-0.218
Mof_I 	I 	0.51831	0.8604	0.63402	-0.218
Mof_I 	I 	0.61317	0.76131	0.56412	-0.123
Mof_Zn	Zn	0.6773	0.3543	0.2814	0.573
Mof_I 	I 	0.63378	0.3201	0.20691	-0.081
Mof_I 	I 	0.74287	0.2732	0.3084	-0.222
Mof_C 	C 	0.777	0.539	0.444	-0.694
Mof_C 	C 	0.741	0.585	0.415	-0.607
Mof_H 	H 	0.7452	0.6426	0.4036	0.286
Mof_C 	C 	0.704	0.549	0.403	3.478
Mof_H 	H 	0.6862	0.5874	0.3853	-1.323
Mof_C 	C 	0.688	0.468	0.413	-6.652
Mof_C 	C 	0.709	0.396	0.44	-5.741
Mof_H 	H 	0.6931	0.3452	0.4434	1.763
Mof_C 	C 	0.749	0.388	0.463	1.896
Mof_C 	C 	0.781	0.457	0.464	-0.372
Mof_C 	C 	0.811	0.418	0.488	-0.966
Mof_H 	H 	0.8363	0.443	0.496	0.365
Mof_C 	C 	0.799	0.33	0.502	0.174
Mof_H 	H 	0.8176	0.292	0.5203	-0.068
Mof_C 	C 	0.764	0.308	0.489	-0.215
Mof_C 	C 	0.811	0.599	0.448	0.358
Mof_H 	H 	0.8034	0.6543	0.4312	-0.029
Mof_H 	H 	0.821	0.6132	0.4789	-0.017
Mof_H 	H 	0.8316	0.5688	0.4359	-0.318
Mof_C 	C 	0.645	0.455	0.394	3.418
Mof_H 	H 	0.64	0.4177	0.366	-1.019
Mof_C 	C 	0.627	0.41	0.431	-3.11
Mof_H 	H 	0.5994	0.3995	0.4208	0.976
Mof_H 	H 	0.6405	0.3526	0.4398	0.971
Mof_H 	H 	0.6314	0.4501	0.457	1.196
Mof_C 	C 	0.623	0.552	0.387	-2.394
Mof_H 	H 	0.5952	0.5429	0.3741	0.796
Mof_H 	H 	0.626	0.5823	0.4152	1.034
Mof_H 	H 	0.6346	0.5884	0.3665	1.7
Mof_C 	C 	0.738	0.222	0.494	0.259
Mof_H 	H 	0.7111	0.2326	0.4782	-0.013
Mof_H 	H 	0.7485	0.1689	0.4827	0.207
Mof_H 	H 	0.7378	0.2133	0.5257	-0.181
Mof_C 	C 	0.6138	0.6562	0.4246	-0.262
Mof_H 	H 	0.625	0.6323	0.4544	0.039
Mof_H 	H 	0.6089	0.7215	0.4259	0.138
Mof_C 	C 	0.5773	0.6014	0.3995	-0.06
Mof_H 	H 	0.5813	0.5361	0.4047	-0.078
Mof_H 	H 	0.5534	0.62	0.4093	0.039
Mof_C 	C 	0.5745	0.6233	0.3519	-0.034
Mof_H 	H 	0.5469	0.6184	0.3364	0.022
Mof_H 	H 	0.5895	0.5783	0.3389	-0.062
Mof_C 	C 	0.5899	0.7206	0.3436	-0.247
Mof_H 	H 	0.5775	0.7667	0.3591	0.11
Mof_H 	H 	0.5843	0.7348	0.3116	0.098
Mof_C 	C 	0.6359	0.7174	0.3627	0.249
Mof_H 	H 	0.6508	0.7161	0.3388	-0.058
Mof_H 	H 	0.6448	0.7687	0.3826	-0.025
Mof_C 	C 	0.6389	0.629	0.3877	-0.943
Mof_H 	H 	0.6663	0.6137	0.4012	0.542
Mof_H 	H 	0.6268	0.5788	0.3687	-0.492
Mof_I 	I 	0.35002	0.4132	0.01155	-0.349
Mof_Zn	Zn	0.37485	0.40124	0.93895	1.161
Mof_I 	I 	0.39145	0.2606	0.9067	-0.127
Mof_N 	N 	0.33405	0.4687	0.89221	-0.271
Mof_N 	N 	0.42303	0.4842	0.94394	-0.281
Mof_C 	C 	0.43635	0.5356	0.97877	0.086
Mof_C 	C 	0.4406	0.4881	0.91027	0.078
Mof_C 	C 	0.46734	0.5935	0.9803	-0.133
Mof_H 	H 	0.4242	0.5326	0.0034	-0.038
Mof_C 	C 	0.4714	0.5445	0.90886	-0.131
Mof_H 	H 	0.4316	0.4499	0.8857	-0.025
Mof_H 	H 	0.4762	0.6299	0.0056	0.077
Mof_C 	C 	0.48536	0.5979	0.94491	0.051
Mof_H 	H 	0.4828	0.5464	0.8836	0.075
Mof_C 	C 	0.5177	0.6609	0.94391	0.079
Mof_N 	N 	0.53931	0.6463	0.91392	-0.157
Mof_N 	N 	0.52231	0.7287	0.97287	-0.148
Mof_C 	C 	0.56766	0.7064	0.9141	-0.017
Mof_C 	C 	0.55061	0.7867	0.96851	0.081
Mof_C 	C 	0.59327	0.6916	0.88236	0.083
Mof_N 	N 	0.57455	0.7779	0.9404	-0.121
Mof_C 	C 	0.55492	0.8677	0.99702	0.054
Mof_C 	C 	0.58229	0.6323	0.84718	-0.232
Mof_C 	C 	0.62852	0.7363	0.88698	-0.177
Mof_C 	C 	0.52846	0.887	0.02287	-0.122
Mof_C 	C 	0.58652	0.9236	0.99889	-0.111
Mof_H 	H 	0.5582	0.601	0.8431	0.085
Mof_C 	C 	0.60707	0.6197	0.81823	0.251
Mof_H 	H 	0.6366	0.778	0.9103	0.071
Mof_C 	C 	0.65168	0.7191	0.85696	0.037
Mof_C 	C 	0.5341	0.9621	0.04962	0.075
Mof_H 	H 	0.5066	0.8491	0.0223	0.07
Mof_H 	H 	0.6052	0.9127	0.9812	0.072
Mof_C 	C 	0.59021	0.9962	0.02741	0.076
Mof_N 	N 	0.64141	0.6624	0.82283	-0.259
Mof_H 	H 	0.5995	0.5795	0.7942	-0.082
Mof_H 	H 	0.6761	0.7488	0.8606	-0.002
Mof_N 	N 	0.56489	0.0155	0.05245	-0.275
Mof_H 	H 	0.5153	0.976	0.0666	-0.014
Mof_H 	H 	0.6122	0.0344	0.0291	-0.025
Mof_Zn	Zn	0.67354	0.6457	0.77329	0.547
Mof_Zn	Zn	0.57771	0.12044	0.09766	1.158
Mof_I 	I 	0.62883	0.66664	0.6982	-0.281
Mof_I 	I 	0.7354	0.73505	0.7964	-0.259
Mof_N 	N 	0.68623	0.508	0.78096	-0.287
Mof_N 	N 	0.61841	0.0515	0.14436	-0.272
Mof_I 	I 	0.61457	0.2362	0.0581	-0.202
Mof_I 	I 	0.52207	0.1522	0.13138	-0.107
Mof_C 	C 	0.65014	0.0906	0.16822	0.055
Mof_C 	C 	0.61025	0.9678	0.1538	0.067
Mof_H 	H 	0.6562	0.1505	0.1615	-0.009
Mof_C 	C 	0.67454	0.0458	0.20263	-0.132
Mof_C 	C 	0.63329	0.9182	0.18688	-0.128
Mof_H 	H 	0.5875	0.9405	0.1369	-0.009
Mof_C 	C 	0.66623	0.958	0.21194	0.044
Mof_H 	H 	0.6967	0.0752	0.2196	0.077
Mof_H 	H 	0.6267	0.8581	0.1924	0.085
Mof_C 	C 	0.69094	0.9058	0.24772	0.094
Mof_N 	N 	0.68096	0.82033	0.25219	-0.138
Mof_N 	N 	0.72174	0.94698	0.2724	-0.142
Mof_C 	C 	0.70558	0.7745	0.2832	0.099
Mof_C 	C 	0.74251	0.8966	0.30474	0.09
Mof_N 	N 	0.736	0.8095	0.31132	-0.139
Mof_C 	C 	0.69859	0.6763	0.28416	0.062
Mof_C 	C 	0.77491	0.942	0.33486	0.05
Mof_C 	C 	0.72465	0.6184	0.30989	-0.139
Mof_C 	C 	0.66605	0.6394	0.25709	-0.135
Mof_C 	C 	0.7968	0.8981	0.3715	-0.108
Mof_C 	C 	0.78422	0.0304	0.32709	-0.125
Mof_H 	H 	0.7472	0.6409	0.3292	0.075
Mof_C 	C 	0.71721	0.5268	0.30695	0.097
Mof_C 	C 	0.66065	0.548	0.25685	0.067
Mof_H 	H 	0.6476	0.6769	0.2388	0.08
Mof_C 	C 	0.82547	0.9455	0.39927	0.082
Mof_H 	H 	0.792	0.8369	0.3772	0.087
Mof_C 	C 	0.81388	0.0724	0.35635	0.067
Mof_H 	H 	0.7703	0.0616	0.3019	0.087
Mof_H 	H 	0.7353	0.4873	0.3245	-0.104
Mof_H 	H 	0.6378	0.5237	0.2388	-0.019
Mof_H 	H 	0.8399	0.916	0.4247	0.007
Mof_H 	H 	0.8202	0.1327	0.3508	-0.027
Mof_C 	C 	0.2805	0.7948	0.4409	-4.854
Mof_H 	H 	0.2819	0.7758	0.4107	1.428
Mof_H 	H 	0.288	0.7429	0.4609	1.491
Mof_C 	C 	0.241	0.821	0.4418	5.926
Mof_H 	H 	0.2388	0.8322	0.4727	-1.974
Mof_H 	H 	0.223	0.7713	0.4301	-1.777
Mof_C 	C 	0.2291	0.9043	0.4147	-6.465
Mof_H 	H 	0.2289	0.8911	0.3833	1.709
Mof_H 	H 	0.2024	0.9215	0.4171	7.84
Mof_C 	C 	0.2557	0.9801	0.4293	4.892
Mof_H 	H 	0.2551	0.996	0.4602	-1.033
Mof_H 	H 	0.2473	0.0331	0.4105	-1.399
Mof_C 	C 	0.2961	0.9538	0.426	-3.331
Mof_H 	H 	0.3142	0.0045	0.4355	1.196
Mof_H 	H 	0.2968	0.9393	0.395	0.971
Mof_C 	C 	0.3092	0.872	0.4553	3.153
Mof_H 	H 	0.3099	0.8874	0.4866	-0.248
Mof_H 	H 	0.3357	0.8537	0.4525	-0.932
Mof_I 	I 	0.35188	0.41112	0.01026	-0.22
Mof_I 	I 	0.39084	0.25735	0.89993	-0.217
Mof_I 	I 	0.01831	0.3604	0.63402	-0.218
Mof_I 	I 	0.11317	0.26131	0.56412	-0.123
Mof_Zn	Zn	0.1773	0.8543	0.2814	0.573
Mof_I 	I 	0.13378	0.8201	0.20691	-0.08
Mof_I 	I 	0.24287	0.7732	0.3084	-0.222
Mof_C 	C 	0.277	0.039	0.444	-0.692
Mof_C 	C 	0.241	0.085	0.415	-0.613
Mof_H 	H 	0.2452	0.1426	0.4036	0.288
Mof_C 	C 	0.204	0.049	0.403	3.477
Mof_H 	H 	0.1862	0.0874	0.3853	-1.323
Mof_C 	C 	0.188	0.968	0.413	-6.648
Mof_C 	C 	0.209	0.896	0.44	-5.74
Mof_H 	H 	0.1931	0.8452	0.4434	1.763
Mof_C 	C 	0.249	0.888	0.463	1.896
Mof_C 	C 	0.281	0.957	0.464	-0.373
Mof_C 	C 	0.311	0.918	0.488	-0.965
Mof_H 	H 	0.3363	0.943	0.496	0.364
Mof_C 	C 	0.299	0.83	0.502	0.172
Mof_H 	H 	0.3176	0.792	0.5203	-0.067
Mof_C 	C 	0.264	0.808	0.489	-0.213
Mof_C 	C 	0.311	0.099	0.448	0.355
Mof_H 	H 	0.3034	0.1543	0.4312	-0.029
Mof_H 	H 	0.321	0.1132	0.4789	-0.017
Mof_H 	H 	0.3316	0.0688	0.4359	-0.317
Mof_C 	C 	0.145	0.955	0.394	3.417
Mof_H 	H 	0.14	0.9177	0.366	-1.019
Mof_C 	C 	0.127	0.91	0.431	-3.11
Mof_H 	H 	0.0994	0.8995	0.4208	0.976
Mof_H 	H 	0.1405	0.8526	0.4398	0.971
Mof_H 	H 	0.1314	0.9501	0.457	1.196
Mof_C 	C 	0.123	0.052	0.387	-2.394
Mof_H 	H 	0.0952	0.0429	0.3741	0.796
Mof_H 	H 	0.126	0.0823	0.4152	1.034
Mof_H 	H 	0.1346	0.0884	0.3665	1.7
Mof_C 	C 	0.238	0.722	0.494	0.255
Mof_H 	H 	0.2111	0.7326	0.4782	-0.012
Mof_H 	H 	0.2485	0.6689	0.4827	0.209
Mof_H 	H 	0.2378	0.7133	0.5257	-0.179
Mof_C 	C 	0.1138	0.1562	0.4246	-0.262
Mof_H 	H 	0.125	0.1323	0.4544	0.039
Mof_H 	H 	0.1089	0.2215	0.4259	0.139
Mof_C 	C 	0.0773	0.1014	0.3995	-0.06
Mof_H 	H 	0.0813	0.0361	0.4047	-0.078
Mof_H 	H 	0.0534	0.12	0.4093	0.038
Mof_C 	C 	0.0745	0.1233	0.3519	-0.034
Mof_H 	H 	0.0469	0.1184	0.3364	0.022
Mof_H 	H 	0.0895	0.0783	0.3389	-0.063
Mof_C 	C 	0.0899	0.2206	0.3436	-0.247
Mof_H 	H 	0.0775	0.2667	0.3591	0.11
Mof_H 	H 	0.0843	0.2348	0.3116	0.098
Mof_C 	C 	0.1359	0.2174	0.3627	0.249
Mof_H 	H 	0.1508	0.2161	0.3388	-0.058
Mof_H 	H 	0.1448	0.2687	0.3826	-0.025
Mof_C 	C 	0.1389	0.129	0.3877	-0.943
Mof_H 	H 	0.1663	0.1137	0.4012	0.542
Mof_H 	H 	0.1268	0.0788	0.3687	-0.492
Mof_I 	I 	0.14998	0.9132	0.48845	-0.348
Mof_Zn	Zn	0.12515	0.90124	0.56105	1.161
Mof_I 	I 	0.10855	0.7606	0.5933	-0.127
Mof_N 	N 	0.16595	0.9687	0.60779	-0.271
Mof_N 	N 	0.07697	0.9842	0.55606	-0.281
Mof_C 	C 	0.06365	0.0356	0.52123	0.085
Mof_C 	C 	0.0594	0.9881	0.58973	0.077
Mof_C 	C 	0.03266	0.0935	0.5197	-0.132
Mof_H 	H 	0.0758	0.0326	0.4966	-0.038
Mof_C 	C 	0.0286	0.0445	0.59114	-0.13
Mof_H 	H 	0.0684	0.9499	0.6143	-0.025
Mof_H 	H 	0.0238	0.1299	0.4944	0.076
Mof_C 	C 	0.01464	0.0979	0.55509	0.051
Mof_H 	H 	0.0172	0.0464	0.6164	0.075
Mof_C 	C 	0.9823	0.1609	0.55609	0.08
Mof_N 	N 	0.96069	0.1463	0.58608	-0.157
Mof_N 	N 	0.97769	0.2287	0.52713	-0.147
Mof_C 	C 	0.93234	0.2064	0.5859	-0.017
Mof_C 	C 	0.94939	0.2867	0.53149	0.081
Mof_C 	C 	0.90673	0.1916	0.61764	0.083
Mof_N 	N 	0.92545	0.2779	0.5596	-0.121
Mof_C 	C 	0.94508	0.3677	0.50298	0.053
Mof_C 	C 	0.91771	0.1323	0.65282	-0.232
Mof_C 	C 	0.87148	0.2363	0.61302	-0.177
Mof_C 	C 	0.97154	0.387	0.47713	-0.122
Mof_C 	C 	0.91348	0.4236	0.50111	-0.106
Mof_H 	H 	0.9418	0.101	0.6569	0.085
Mof_C 	C 	0.89293	0.1197	0.68177	0.251
Mof_H 	H 	0.8634	0.278	0.5897	0.071
Mof_C 	C 	0.84832	0.2191	0.64304	0.037
Mof_C 	C 	0.9659	0.4621	0.45038	0.073
Mof_H 	H 	0.9934	0.3491	0.4777	0.07
Mof_H 	H 	0.8948	0.4127	0.5188	0.071
Mof_C 	C 	0.90979	0.4962	0.47259	0.068
Mof_N 	N 	0.85859	0.1624	0.67717	-0.259
Mof_H 	H 	0.9005	0.0795	0.7058	-0.082
Mof_H 	H 	0.8239	0.2488	0.6394	-0.002
Mof_N 	N 	0.93511	0.5155	0.44755	-0.273
Mof_H 	H 	0.9847	0.476	0.4334	-0.013
Mof_H 	H 	0.8878	0.5344	0.4709	-0.022
Mof_Zn	Zn	0.82646	0.1457	0.72671	0.547
Mof_Zn	Zn	0.92229	0.62044	0.40234	1.158
Mof_I 	I 	0.87117	0.16664	0.8018	-0.281
Mof_I 	I 	0.7646	0.23505	0.7036	-0.259
Mof_N 	N 	0.81377	0.008	0.71904	-0.286
Mof_N 	N 	0.88159	0.5515	0.35564	-0.271
Mof_I 	I 	0.88543	0.7362	0.4419	-0.202
Mof_I 	I 	0.97793	0.6522	0.36862	-0.106
Mof_C 	C 	0.84986	0.5906	0.33178	0.054
Mof_C 	C 	0.88975	0.4678	0.3462	0.065
Mof_H 	H 	0.8438	0.6505	0.3385	-0.008
Mof_C 	C 	0.82546	0.5458	0.29737	-0.13
Mof_C 	C 	0.86671	0.4182	0.31312	-0.126
Mof_H 	H 	0.9125	0.4405	0.3631	-0.009
Mof_C 	C 	0.83377	0.458	0.28806	0.041
Mof_H 	H 	0.8033	0.5752	0.2804	0.076
Mof_H 	H 	0.8733	0.3581	0.3076	0.084
Mof_C 	C 	0.80906	0.4058	0.25228	0.095
Mof_N 	N 	0.81904	0.32033	0.24781	-0.139
Mof_N 	N 	0.77826	0.44698	0.2276	-0.142
Mof_C 	C 	0.79442	0.2745	0.2168	0.099
Mof_C 	C 	0.75749	0.3966	0.19526	0.09
Mof_N 	N 	0.764	0.3095	0.18868	-0.139
Mof_C 	C 	0.80141	0.1763	0.21584	0.061
Mof_C 	C 	0.72509	0.442	0.16514	0.049
Mof_C 	C 	0.77535	0.1184	0.19011	-0.136
Mof_C 	C 	0.83395	0.1394	0.24291	-0.133
Mof_C 	C 	0.7032	0.3981	0.1285	-0.107
Mof_C 	C 	0.71578	0.5304	0.17291	-0.124
Mof_H 	H 	0.7528	0.1409	0.1708	0.074
Mof_C 	C 	0.78279	0.0268	0.19305	0.092
Mof_C 	C 	0.83935	0.048	0.24315	0.065
Mof_H 	H 	0.8524	0.1769	0.2612	0.079
Mof_C 	C 	0.67453	0.4455	0.10073	0.081
Mof_H 	H 	0.708	0.3369	0.1228	0.087
Mof_C 	C 	0.68612	0.5724	0.14365	0.066
Mof_H 	H 	0.7297	0.5616	0.1981	0.087
Mof_H 	H 	0.7647	0.9873	0.1755	-0.101
Mof_H 	H 	0.8622	0.0237	0.2612	-0.019
Mof_H 	H 	0.6601	0.416	0.0753	0.007
Mof_H 	H 	0.6798	0.6327	0.1492	-0.027
Mof_C 	C 	0.2195	0.2948	0.0591	-4.857
Mof_H 	H 	0.2181	0.2758	0.0893	1.429
Mof_H 	H 	0.212	0.2429	0.0391	1.491
Mof_C 	C 	0.259	0.321	0.0582	5.926
Mof_H 	H 	0.2612	0.3322	0.0273	-1.974
Mof_H 	H 	0.277	0.2713	0.0699	-1.777
Mof_C 	C 	0.2709	0.4043	0.0853	-6.468
Mof_H 	H 	0.2711	0.3911	0.1167	1.71
Mof_H 	H 	0.2976	0.4215	0.0829	7.838
Mof_C 	C 	0.2443	0.4801	0.0707	4.899
Mof_H 	H 	0.2449	0.496	0.0398	-1.035
Mof_H 	H 	0.2527	0.5331	0.0895	-1.404
Mof_C 	C 	0.2039	0.4538	0.074	-3.337
Mof_H 	H 	0.1858	0.5045	0.0645	1.199
Mof_H 	H 	0.2032	0.4393	0.105	0.973
Mof_C 	C 	0.1908	0.372	0.0447	3.157
Mof_H 	H 	0.1901	0.3874	0.0134	-0.249
Mof_H 	H 	0.1643	0.3537	0.0475	-0.933
Mof_I 	I 	0.14812	0.91112	0.48974	-0.22
Mof_I 	I 	0.10916	0.75735	0.60007	-0.217
Mof_I 	I 	0.48169	0.8604	0.86598	-0.218
Mof_I 	I 	0.38683	0.76131	0.93588	-0.124
Mof_Zn	Zn	0.3227	0.3543	0.2186	0.573
Mof_I 	I 	0.36622	0.3201	0.29309	-0.081
Mof_I 	I 	0.25713	0.2732	0.1916	-0.222
Mof_C 	C 	0.223	0.539	0.056	-0.695
Mof_C 	C 	0.259	0.585	0.085	-0.605
Mof_H 	H 	0.2548	0.6426	0.0964	0.286
Mof_C 	C 	0.296	0.549	0.097	3.474
Mof_H 	H 	0.3138	0.5874	0.1147	-1.321
Mof_C 	C 	0.312	0.468	0.087	-6.646
Mof_C 	C 	0.291	0.396	0.06	-5.736
Mof_H 	H 	0.3069	0.3452	0.0566	1.762
Mof_C 	C 	0.251	0.388	0.037	1.893
Mof_C 	C 	0.219	0.457	0.036	-0.371
Mof_C 	C 	0.189	0.418	0.012	-0.966
Mof_H 	H 	0.1637	0.443	0.004	0.365
Mof_C 	C 	0.201	0.33	0.998	0.177
Mof_H 	H 	0.1824	0.292	0.9797	-0.069
Mof_C 	C 	0.236	0.308	0.011	-0.215
Mof_C 	C 	0.189	0.599	0.052	0.358
Mof_H 	H 	0.1966	0.6543	0.0688	-0.029
Mof_H 	H 	0.179	0.6132	0.0211	-0.017
Mof_H 	H 	0.1684	0.5688	0.0641	-0.318
Mof_C 	C 	0.355	0.455	0.106	3.415
Mof_H 	H 	0.36	0.4177	0.134	-1.018
Mof_C 	C 	0.373	0.41	0.069	-3.108
Mof_H 	H 	0.4006	0.3995	0.0792	0.975
Mof_H 	H 	0.3595	0.3526	0.0602	0.971
Mof_H 	H 	0.3686	0.4501	0.043	1.196
Mof_C 	C 	0.377	0.552	0.113	-2.392
Mof_H 	H 	0.4048	0.5429	0.1259	0.796
Mof_H 	H 	0.374	0.5823	0.0848	1.033
Mof_H 	H 	0.3654	0.5884	0.1335	1.699
Mof_C 	C 	0.262	0.222	0.006	0.266
Mof_H 	H 	0.2889	0.2326	0.0218	-0.015
Mof_H 	H 	0.2515	0.1689	0.0173	0.204
Mof_H 	H 	0.2622	0.2133	0.9743	-0.182
Mof_C 	C 	0.3862	0.6562	0.0754	-0.262
Mof_H 	H 	0.375	0.6323	0.0456	0.039
Mof_H 	H 	0.3911	0.7215	0.0741	0.139
Mof_C 	C 	0.4227	0.6014	0.1005	-0.06
Mof_H 	H 	0.4187	0.5361	0.0953	-0.078
Mof_H 	H 	0.4466	0.62	0.0907	0.039
Mof_C 	C 	0.4255	0.6233	0.1481	-0.034
Mof_H 	H 	0.4531	0.6184	0.1636	0.022
Mof_H 	H 	0.4105	0.5783	0.1611	-0.062
Mof_C 	C 	0.4101	0.7206	0.1564	-0.247
Mof_H 	H 	0.4225	0.7667	0.1409	0.11
Mof_H 	H 	0.4157	0.7348	0.1884	0.098
Mof_C 	C 	0.3641	0.7174	0.1373	0.249
Mof_H 	H 	0.3492	0.7161	0.1612	-0.058
Mof_H 	H 	0.3552	0.7687	0.1174	-0.025
Mof_C 	C 	0.3611	0.629	0.1123	-0.943
Mof_H 	H 	0.3337	0.6137	0.0988	0.542
Mof_H 	H 	0.3732	0.5788	0.1313	-0.492
Mof_I 	I 	0.64998	0.4132	0.48845	-0.348
Mof_Zn	Zn	0.62515	0.40124	0.56105	1.161
Mof_I 	I 	0.60855	0.2606	0.5933	-0.127
Mof_N 	N 	0.66595	0.4687	0.60779	-0.271
Mof_N 	N 	0.57697	0.4842	0.55606	-0.281
Mof_C 	C 	0.56365	0.5356	0.52123	0.085
Mof_C 	C 	0.5594	0.4881	0.58973	0.078
Mof_C 	C 	0.53266	0.5935	0.5197	-0.132
Mof_H 	H 	0.5758	0.5326	0.4966	-0.038
Mof_C 	C 	0.5286	0.5445	0.59114	-0.131
Mof_H 	H 	0.5684	0.4499	0.6143	-0.025
Mof_H 	H 	0.5238	0.6299	0.4944	0.076
Mof_C 	C 	0.51464	0.5979	0.55509	0.051
Mof_H 	H 	0.5172	0.5464	0.6164	0.075
Mof_C 	C 	0.4823	0.6609	0.55609	0.079
Mof_N 	N 	0.46069	0.6463	0.58608	-0.157
Mof_N 	N 	0.47769	0.7287	0.52713	-0.147
Mof_C 	C 	0.43234	0.7064	0.5859	-0.017
Mof_C 	C 	0.44939	0.7867	0.53149	0.081
Mof_C 	C 	0.40673	0.6916	0.61764	0.083
Mof_N 	N 	0.42545	0.7779	0.5596	-0.121
Mof_C 	C 	0.44508	0.8677	0.50298	0.053
Mof_C 	C 	0.41771	0.6323	0.65282	-0.232
Mof_C 	C 	0.37148	0.7363	0.61302	-0.177
Mof_C 	C 	0.47154	0.887	0.47713	-0.122
Mof_C 	C 	0.41348	0.9236	0.50111	-0.106
Mof_H 	H 	0.4418	0.601	0.6569	0.085
Mof_C 	C 	0.39293	0.6197	0.68177	0.251
Mof_H 	H 	0.3634	0.778	0.5897	0.071
Mof_C 	C 	0.34832	0.7191	0.64304	0.037
Mof_C 	C 	0.4659	0.9621	0.45038	0.074
Mof_H 	H 	0.4934	0.8491	0.4777	0.07
Mof_H 	H 	0.3948	0.9127	0.5188	0.071
Mof_C 	C 	0.40979	0.9962	0.47259	0.069
Mof_N 	N 	0.35859	0.6624	0.67717	-0.259
Mof_H 	H 	0.4005	0.5795	0.7058	-0.083
Mof_H 	H 	0.3239	0.7488	0.6394	-0.002
Mof_N 	N 	0.43511	0.0155	0.44755	-0.273
Mof_H 	H 	0.4847	0.976	0.4334	-0.013
Mof_H 	H 	0.3878	0.0344	0.4709	-0.022
Mof_Zn	Zn	0.32646	0.6457	0.72671	0.547
Mof_Zn	Zn	0.42229	0.12044	0.40234	1.158
Mof_I 	I 	0.37117	0.66664	0.8018	-0.281
Mof_I 	I 	0.2646	0.73505	0.7036	-0.259
Mof_N 	N 	0.31377	0.508	0.71904	-0.287
Mof_N 	N 	0.38159	0.0515	0.35564	-0.272
Mof_I 	I 	0.38543	0.2362	0.4419	-0.202
Mof_I 	I 	0.47793	0.1522	0.36862	-0.106
Mof_C 	C 	0.34986	0.0906	0.33178	0.055
Mof_C 	C 	0.38975	0.9678	0.3462	0.066
Mof_H 	H 	0.3438	0.1505	0.3385	-0.008
Mof_C 	C 	0.32546	0.0458	0.29737	-0.131
Mof_C 	C 	0.36671	0.9182	0.31312	-0.127
Mof_H 	H 	0.4125	0.9405	0.3631	-0.009
Mof_C 	C 	0.33377	0.958	0.28806	0.043
Mof_H 	H 	0.3033	0.0752	0.2804	0.076
Mof_H 	H 	0.3733	0.8581	0.3076	0.084
Mof_C 	C 	0.30906	0.9058	0.25228	0.094
Mof_N 	N 	0.31904	0.82033	0.24781	-0.138
Mof_N 	N 	0.27826	0.94698	0.2276	-0.142
Mof_C 	C 	0.29442	0.7745	0.2168	0.099
Mof_C 	C 	0.25749	0.8966	0.19526	0.09
Mof_N 	N 	0.264	0.8095	0.18868	-0.139
Mof_C 	C 	0.30141	0.6763	0.21584	0.062
Mof_C 	C 	0.22509	0.942	0.16514	0.051
Mof_C 	C 	0.27535	0.6184	0.19011	-0.139
Mof_C 	C 	0.33395	0.6394	0.24291	-0.135
Mof_C 	C 	0.2032	0.8981	0.1285	-0.109
Mof_C 	C 	0.21578	0.0304	0.17291	-0.126
Mof_H 	H 	0.2528	0.6409	0.1708	0.075
Mof_C 	C 	0.28279	0.5268	0.19305	0.097
Mof_C 	C 	0.33935	0.548	0.24315	0.067
Mof_H 	H 	0.3524	0.6769	0.2612	0.08
Mof_C 	C 	0.17453	0.9455	0.10073	0.083
Mof_H 	H 	0.208	0.8369	0.1228	0.087
Mof_C 	C 	0.18612	0.0724	0.14365	0.067
Mof_H 	H 	0.2297	0.0616	0.1981	0.087
Mof_H 	H 	0.2647	0.4873	0.1755	-0.104
Mof_H 	H 	0.3622	0.5237	0.2612	-0.019
Mof_H 	H 	0.1601	0.916	0.0753	0.007
Mof_H 	H 	0.1798	0.1327	0.1492	-0.027
Mof_C 	C 	0.7195	0.7948	0.0591	-4.836
Mof_H 	H 	0.7181	0.7758	0.0893	1.423
Mof_H 	H 	0.712	0.7429	0.0391	1.486
Mof_C 	C 	0.759	0.821	0.0582	5.904
Mof_H 	H 	0.7612	0.8322	0.0273	-1.968
Mof_H 	H 	0.777	0.7713	0.0699	-1.77
Mof_C 	C 	0.7709	0.9043	0.0853	-6.442
Mof_H 	H 	0.7711	0.8911	0.1167	1.703
Mof_H 	H 	0.7976	0.9215	0.0829	7.819
Mof_C 	C 	0.7443	0.9801	0.0707	4.873
Mof_H 	H 	0.7449	0.996	0.0398	-1.027
Mof_H 	H 	0.7527	0.0331	0.0895	-1.391
Mof_C 	C 	0.7039	0.9538	0.074	-3.314
Mof_H 	H 	0.6858	0.0045	0.0645	1.19
Mof_H 	H 	0.7032	0.9393	0.105	0.966
Mof_C 	C 	0.6908	0.872	0.0447	3.139
Mof_H 	H 	0.6901	0.8874	0.0134	-0.246
Mof_H 	H 	0.6643	0.8537	0.0475	-0.927
Mof_I 	I 	0.64812	0.41112	0.48974	-0.22
Mof_I 	I 	0.60916	0.25735	0.60007	-0.217
Mof_I 	I 	0.98169	0.3604	0.86598	-0.218
Mof_I 	I 	0.88683	0.26131	0.93588	-0.123
Mof_Zn	Zn	0.8227	0.8543	0.2186	0.573
Mof_I 	I 	0.86622	0.8201	0.29309	-0.08
Mof_I 	I 	0.75713	0.7732	0.1916	-0.222
Mof_C 	C 	0.723	0.039	0.056	-0.689
Mof_C 	C 	0.759	0.085	0.085	-0.617
Mof_H 	H 	0.7548	0.1426	0.0964	0.289
Mof_C 	C 	0.796	0.049	0.097	3.468
Mof_H 	H 	0.8138	0.0874	0.1147	-1.319
Mof_C 	C 	0.812	0.968	0.087	-6.63
Mof_C 	C 	0.791	0.896	0.06	-5.728
Mof_H 	H 	0.8069	0.8452	0.0566	1.76
Mof_C 	C 	0.751	0.888	0.037	1.893
Mof_C 	C 	0.719	0.957	0.036	-0.374
Mof_C 	C 	0.689	0.918	0.012	-0.959
Mof_H 	H 	0.6637	0.943	0.004	0.363
Mof_C 	C 	0.701	0.83	0.998	0.167
Mof_H 	H 	0.6824	0.792	0.9797	-0.065
Mof_C 	C 	0.736	0.808	0.011	-0.212
Mof_C 	C 	0.689	0.099	0.052	0.353
Mof_H 	H 	0.6966	0.1543	0.0688	-0.028
Mof_H 	H 	0.679	0.1132	0.0211	-0.016
Mof_H 	H 	0.6684	0.0688	0.0641	-0.315
Mof_C 	C 	0.855	0.955	0.106	3.409
Mof_H 	H 	0.86	0.9177	0.134	-1.016
Mof_C 	C 	0.873	0.91	0.069	-3.104
Mof_H 	H 	0.9006	0.8995	0.0792	0.974
Mof_H 	H 	0.8595	0.8526	0.0602	0.969
Mof_H 	H 	0.8686	0.9501	0.043	1.194
Mof_C 	C 	0.877	0.052	0.113	-2.39
Mof_H 	H 	0.9048	0.0429	0.1259	0.795
Mof_H 	H 	0.874	0.0823	0.0848	1.032
Mof_H 	H 	0.8654	0.0884	0.1335	1.697
Mof_C 	C 	0.762	0.722	0.006	0.247
Mof_H 	H 	0.7889	0.7326	0.0218	-0.01
Mof_H 	H 	0.7515	0.6689	0.0173	0.212
Mof_H 	H 	0.7622	0.7133	0.9743	-0.176
Mof_C 	C 	0.8862	0.1562	0.0754	-0.262
Mof_H 	H 	0.875	0.1323	0.0456	0.039
Mof_H 	H 	0.8911	0.2215	0.0741	0.138
Mof_C 	C 	0.9227	0.1014	0.1005	-0.06
Mof_H 	H 	0.9187	0.0361	0.0953	-0.078
Mof_H 	H 	0.9466	0.12	0.0907	0.038
Mof_C 	C 	0.9255	0.1233	0.1481	-0.034
Mof_H 	H 	0.9531	0.1184	0.1636	0.022
Mof_H 	H 	0.9105	0.0783	0.1611	-0.062
Mof_C 	C 	0.9101	0.2206	0.1564	-0.246
Mof_H 	H 	0.9225	0.2667	0.1409	0.11
Mof_H 	H 	0.9157	0.2348	0.1884	0.098
Mof_C 	C 	0.8641	0.2174	0.1373	0.249
Mof_H 	H 	0.8492	0.2161	0.1612	-0.058
Mof_H 	H 	0.8552	0.2687	0.1174	-0.025
Mof_C 	C 	0.8611	0.129	0.1123	-0.942
Mof_H 	H 	0.8337	0.1137	0.0988	0.541
Mof_H 	H 	0.8732	0.0788	0.1313	-0.492
Mof_I 	I 	0.14998	0.0868	0.98845	-0.348
Mof_Zn	Zn	0.12515	0.09876	0.06105	1.161
Mof_I 	I 	0.10855	0.2394	0.0933	-0.127
Mof_N 	N 	0.16595	0.0313	0.10779	-0.272
Mof_N 	N 	0.07697	0.0158	0.05606	-0.282
Mof_C 	C 	0.06365	0.9644	0.02123	0.088
Mof_C 	C 	0.0594	0.0119	0.08973	0.075
Mof_C 	C 	0.03266	0.9065	0.0197	-0.131
Mof_H 	H 	0.0758	0.9674	0.9966	-0.04
Mof_C 	C 	0.0286	0.9555	0.09114	-0.128
Mof_H 	H 	0.0684	0.0501	0.1143	-0.025
Mof_H 	H 	0.0238	0.8701	0.9944	0.075
Mof_C 	C 	0.01464	0.9021	0.05509	0.05
Mof_H 	H 	0.0172	0.9536	0.1164	0.074
Mof_C 	C 	0.9823	0.8391	0.05609	0.08
Mof_N 	N 	0.96069	0.8537	0.08608	-0.157
Mof_N 	N 	0.97769	0.7713	0.02713	-0.147
Mof_C 	C 	0.93234	0.7936	0.0859	-0.017
Mof_C 	C 	0.94939	0.7133	0.03149	0.081
Mof_C 	C 	0.90673	0.8084	0.11764	0.083
Mof_N 	N 	0.92545	0.7221	0.0596	-0.121
Mof_C 	C 	0.94508	0.6323	0.00298	0.053
Mof_C 	C 	0.91771	0.8677	0.15282	-0.232
Mof_C 	C 	0.87148	0.7637	0.11302	-0.177
Mof_C 	C 	0.97154	0.613	0.97713	-0.123
Mof_C 	C 	0.91348	0.5764	0.00111	-0.106
Mof_H 	H 	0.9418	0.899	0.1569	0.086
Mof_C 	C 	0.89293	0.8803	0.18177	0.251
Mof_H 	H 	0.8634	0.722	0.0897	0.071
Mof_C 	C 	0.84832	0.7809	0.14304	0.037
Mof_C 	C 	0.9659	0.5379	0.95038	0.074
Mof_H 	H 	0.9934	0.6509	0.9777	0.07
Mof_H 	H 	0.8948	0.5873	0.0188	0.071
Mof_C 	C 	0.90979	0.5038	0.97259	0.068
Mof_N 	N 	0.85859	0.8376	0.17717	-0.259
Mof_H 	H 	0.9005	0.9205	0.2058	-0.082
Mof_H 	H 	0.8239	0.7512	0.1394	-0.002
Mof_N 	N 	0.93511	0.4845	0.94755	-0.273
Mof_H 	H 	0.9847	0.524	0.9334	-0.013
Mof_H 	H 	0.8878	0.4656	0.9709	-0.022
Mof_Zn	Zn	0.82646	0.8543	0.22671	0.547
Mof_Zn	Zn	0.92229	0.37956	0.90234	1.158
Mof_I 	I 	0.87117	0.83336	0.3018	-0.281
Mof_I 	I 	0.7646	0.76495	0.2036	-0.258
Mof_N 	N 	0.81377	0.992	0.21904	-0.285
Mof_N 	N 	0.88159	0.4485	0.85564	-0.271
Mof_I 	I 	0.88543	0.2638	0.9419	-0.202
Mof_I 	I 	0.97793	0.3478	0.86862	-0.106
Mof_C 	C 	0.84986	0.4094	0.83178	0.054
Mof_C 	C 	0.88975	0.5322	0.8462	0.065
Mof_H 	H 	0.8438	0.3495	0.8385	-0.008
Mof_C 	C 	0.82546	0.4542	0.79737	-0.13
Mof_C 	C 	0.86671	0.5818	0.81312	-0.126
Mof_H 	H 	0.9125	0.5595	0.8631	-0.009
Mof_C 	C 	0.83377	0.542	0.78806	0.041
Mof_H 	H 	0.8033	0.4248	0.7804	0.076
Mof_H 	H 	0.8733	0.6419	0.8076	0.084
Mof_C 	C 	0.80906	0.5942	0.75228	0.095
Mof_N 	N 	0.81904	0.67967	0.74781	-0.139
Mof_N 	N 	0.77826	0.55302	0.7276	-0.142
Mof_C 	C 	0.79442	0.7255	0.7168	0.099
Mof_C 	C 	0.75749	0.6034	0.69526	0.09
Mof_N 	N 	0.764	0.6905	0.68868	-0.139
Mof_C 	C 	0.80141	0.8237	0.71584	0.061
Mof_C 	C 	0.72509	0.558	0.66514	0.049
Mof_C 	C 	0.77535	0.8816	0.69011	-0.137
Mof_C 	C 	0.83395	0.8606	0.74291	-0.134
Mof_C 	C 	0.7032	0.6019	0.6285	-0.107
Mof_C 	C 	0.71578	0.4696	0.67291	-0.124
Mof_H 	H 	0.7528	0.8591	0.6708	0.075
Mof_C 	C 	0.78279	0.9732	0.69305	0.093
Mof_C 	C 	0.83935	0.952	0.74315	0.065
Mof_H 	H 	0.8524	0.8231	0.7612	0.079
Mof_C 	C 	0.67453	0.5545	0.60073	0.081
Mof_H 	H 	0.708	0.6631	0.6228	0.087
Mof_C 	C 	0.68612	0.4276	0.64365	0.066
Mof_H 	H 	0.7297	0.4384	0.6981	0.087
Mof_H 	H 	0.7647	0.0127	0.6755	-0.102
Mof_H 	H 	0.8622	0.9763	0.7612	-0.019
Mof_H 	H 	0.6601	0.584	0.5753	0.007
Mof_H 	H 	0.6798	0.3673	0.6492	-0.027
Mof_C 	C 	0.2195	0.7052	0.5591	-4.86
Mof_H 	H 	0.2181	0.7242	0.5893	1.43
Mof_H 	H 	0.212	0.7571	0.5391	1.493
Mof_C 	C 	0.259	0.679	0.5582	5.931
Mof_H 	H 	0.2612	0.6678	0.5273	-1.975
Mof_H 	H 	0.277	0.7287	0.5699	-1.779
Mof_C 	C 	0.2709	0.5957	0.5853	-6.472
Mof_H 	H 	0.2711	0.6089	0.6167	1.711
Mof_H 	H 	0.2976	0.5785	0.5829	7.845
Mof_C 	C 	0.2443	0.5199	0.5707	4.901
Mof_H 	H 	0.2449	0.504	0.5398	-1.036
Mof_H 	H 	0.2527	0.4669	0.5895	-1.404
Mof_C 	C 	0.2039	0.5462	0.574	-3.338
Mof_H 	H 	0.1858	0.4955	0.5645	1.199
Mof_H 	H 	0.2032	0.5607	0.605	0.973
Mof_C 	C 	0.1908	0.628	0.5447	3.158
Mof_H 	H 	0.1901	0.6126	0.5134	-0.249
Mof_H 	H 	0.1643	0.6463	0.5475	-0.933
Mof_I 	I 	0.14812	0.08888	0.98974	-0.22
Mof_I 	I 	0.10916	0.24265	0.10007	-0.218
Mof_I 	I 	0.48169	0.1396	0.36598	-0.218
Mof_I 	I 	0.38683	0.23869	0.43588	-0.123
Mof_Zn	Zn	0.3227	0.6457	0.7186	0.573
Mof_I 	I 	0.36622	0.6799	0.79309	-0.081
Mof_I 	I 	0.25713	0.7268	0.6916	-0.222
Mof_C 	C 	0.223	0.461	0.556	-0.694
Mof_C 	C 	0.259	0.415	0.585	-0.607
Mof_H 	H 	0.2548	0.3574	0.5964	0.286
Mof_C 	C 	0.296	0.451	0.597	3.478
Mof_H 	H 	0.3138	0.4126	0.6147	-1.323
Mof_C 	C 	0.312	0.532	0.587	-6.652
Mof_C 	C 	0.291	0.604	0.56	-5.741
Mof_H 	H 	0.3069	0.6548	0.5566	1.763
Mof_C 	C 	0.251	0.612	0.537	1.896
Mof_C 	C 	0.219	0.543	0.536	-0.372
Mof_C 	C 	0.189	0.582	0.512	-0.966
Mof_H 	H 	0.1637	0.557	0.504	0.365
Mof_C 	C 	0.201	0.67	0.498	0.174
Mof_H 	H 	0.1824	0.708	0.4797	-0.068
Mof_C 	C 	0.236	0.692	0.511	-0.215
Mof_C 	C 	0.189	0.401	0.552	0.358
Mof_H 	H 	0.1966	0.3457	0.5688	-0.029
Mof_H 	H 	0.179	0.3868	0.5211	-0.017
Mof_H 	H 	0.1684	0.4312	0.5641	-0.318
Mof_C 	C 	0.355	0.545	0.606	3.418
Mof_H 	H 	0.36	0.5823	0.634	-1.019
Mof_C 	C 	0.373	0.59	0.569	-3.11
Mof_H 	H 	0.4006	0.6005	0.5792	0.976
Mof_H 	H 	0.3595	0.6474	0.5602	0.971
Mof_H 	H 	0.3686	0.5499	0.543	1.196
Mof_C 	C 	0.377	0.448	0.613	-2.394
Mof_H 	H 	0.4048	0.4571	0.6259	0.796
Mof_H 	H 	0.374	0.4177	0.5848	1.034
Mof_H 	H 	0.3654	0.4116	0.6335	1.7
Mof_C 	C 	0.262	0.778	0.506	0.259
Mof_H 	H 	0.2889	0.7674	0.5218	-0.013
Mof_H 	H 	0.2515	0.8311	0.5173	0.207
Mof_H 	H 	0.2622	0.7867	0.4743	-0.181
Mof_C 	C 	0.3862	0.3438	0.5754	-0.262
Mof_H 	H 	0.375	0.3677	0.5456	0.039
Mof_H 	H 	0.3911	0.2785	0.5741	0.138
Mof_C 	C 	0.4227	0.3986	0.6005	-0.06
Mof_H 	H 	0.4187	0.4639	0.5953	-0.078
Mof_H 	H 	0.4466	0.38	0.5907	0.039
Mof_C 	C 	0.4255	0.3767	0.6481	-0.034
Mof_H 	H 	0.4531	0.3816	0.6636	0.022
Mof_H 	H 	0.4105	0.4217	0.6611	-0.062
Mof_C 	C 	0.4101	0.2794	0.6564	-0.247
Mof_H 	H 	0.4225	0.2333	0.6409	0.11
Mof_H 	H 	0.4157	0.2652	0.6884	0.098
Mof_C 	C 	0.3641	0.2826	0.6373	0.249
Mof_H 	H 	0.3492	0.2839	0.6612	-0.058
Mof_H 	H 	0.3552	0.2313	0.6174	-0.025
Mof_C 	C 	0.3611	0.371	0.6123	-0.943
Mof_H 	H 	0.3337	0.3863	0.5988	0.542
Mof_H 	H 	0.3732	0.4212	0.6313	-0.492
Mof_I 	I 	0.64998	0.5868	0.98845	-0.349
Mof_Zn	Zn	0.62515	0.59876	0.06105	1.161
Mof_I 	I 	0.60855	0.7394	0.0933	-0.127
Mof_N 	N 	0.66595	0.5313	0.10779	-0.271
Mof_N 	N 	0.57697	0.5158	0.05606	-0.281
Mof_C 	C 	0.56365	0.4644	0.02123	0.086
Mof_C 	C 	0.5594	0.5119	0.08973	0.078
Mof_C 	C 	0.53266	0.4065	0.0197	-0.133
Mof_H 	H 	0.5758	0.4674	0.9966	-0.038
Mof_C 	C 	0.5286	0.4555	0.09114	-0.131
Mof_H 	H 	0.5684	0.5501	0.1143	-0.025
Mof_H 	H 	0.5238	0.3701	0.9944	0.077
Mof_C 	C 	0.51464	0.4021	0.05509	0.051
Mof_H 	H 	0.5172	0.4536	0.1164	0.075
Mof_C 	C 	0.4823	0.3391	0.05609	0.079
Mof_N 	N 	0.46069	0.3537	0.08608	-0.157
Mof_N 	N 	0.47769	0.2713	0.02713	-0.148
Mof_C 	C 	0.43234	0.2936	0.0859	-0.017
Mof_C 	C 	0.44939	0.2133	0.03149	0.081
Mof_C 	C 	0.40673	0.3084	0.11764	0.083
Mof_N 	N 	0.42545	0.2221	0.0596	-0.121
Mof_C 	C 	0.44508	0.1323	0.00298	0.054
Mof_C 	C 	0.41771	0.3677	0.15282	-0.232
Mof_C 	C 	0.37148	0.2637	0.11302	-0.177
Mof_C 	C 	0.47154	0.113	0.97713	-0.122
Mof_C 	C 	0.41348	0.0764	0.00111	-0.111
Mof_H 	H 	0.4418	0.399	0.1569	0.085
Mof_C 	C 	0.39293	0.3803	0.18177	0.251
Mof_H 	H 	0.3634	0.222	0.0897	0.071
Mof_C 	C 	0.34832	0.2809	0.14304	0.037
Mof_C 	C 	0.4659	0.0379	0.95038	0.075
Mof_H 	H 	0.4934	0.1509	0.9777	0.07
Mof_H 	H 	0.3948	0.0873	0.0188	0.072
Mof_C 	C 	0.40979	0.0038	0.97259	0.076
Mof_N 	N 	0.35859	0.3376	0.17717	-0.259
Mof_H 	H 	0.4005	0.4205	0.2058	-0.082
Mof_H 	H 	0.3239	0.2512	0.1394	-0.002
Mof_N 	N 	0.43511	0.9845	0.94755	-0.275
Mof_H 	H 	0.4847	0.024	0.9334	-0.014
Mof_H 	H 	0.3878	0.9656	0.9709	-0.025
Mof_Zn	Zn	0.32646	0.3543	0.22671	0.547
Mof_Zn	Zn	0.42229	0.87956	0.90234	1.158
Mof_I 	I 	0.37117	0.33336	0.3018	-0.281
Mof_I 	I 	0.2646	0.26495	0.2036	-0.259
Mof_N 	N 	0.31377	0.492	0.21904	-0.287
Mof_N 	N 	0.38159	0.9485	0.85564	-0.272
Mof_I 	I 	0.38543	0.7638	0.9419	-0.202
Mof_I 	I 	0.47793	0.8478	0.86862	-0.107
Mof_C 	C 	0.34986	0.9094	0.83178	0.055
Mof_C 	C 	0.38975	0.0322	0.8462	0.067
Mof_H 	H 	0.3438	0.8495	0.8385	-0.009
Mof_C 	C 	0.32546	0.9542	0.79737	-0.132
Mof_C 	C 	0.36671	0.0818	0.81312	-0.128
Mof_H 	H 	0.4125	0.0595	0.8631	-0.009
Mof_C 	C 	0.33377	0.042	0.78806	0.044
Mof_H 	H 	0.3033	0.9248	0.7804	0.077
Mof_H 	H 	0.3733	0.1419	0.8076	0.085
Mof_C 	C 	0.30906	0.0942	0.75228	0.094
Mof_N 	N 	0.31904	0.17967	0.74781	-0.138
Mof_N 	N 	0.27826	0.05302	0.7276	-0.142
Mof_C 	C 	0.29442	0.2255	0.7168	0.099
Mof_C 	C 	0.25749	0.1034	0.69526	0.09
Mof_N 	N 	0.264	0.1905	0.68868	-0.139
Mof_C 	C 	0.30141	0.3237	0.71584	0.062
Mof_C 	C 	0.22509	0.058	0.66514	0.05
Mof_C 	C 	0.27535	0.3816	0.69011	-0.139
Mof_C 	C 	0.33395	0.3606	0.74291	-0.135
Mof_C 	C 	0.2032	0.1019	0.6285	-0.108
Mof_C 	C 	0.21578	0.9696	0.67291	-0.125
Mof_H 	H 	0.2528	0.3591	0.6708	0.075
Mof_C 	C 	0.28279	0.4732	0.69305	0.097
Mof_C 	C 	0.33935	0.452	0.74315	0.067
Mof_H 	H 	0.3524	0.3231	0.7612	0.08
Mof_C 	C 	0.17453	0.0545	0.60073	0.082
Mof_H 	H 	0.208	0.1631	0.6228	0.087
Mof_C 	C 	0.18612	0.9276	0.64365	0.067
Mof_H 	H 	0.2297	0.9384	0.6981	0.087
Mof_H 	H 	0.2647	0.5127	0.6755	-0.104
Mof_H 	H 	0.3622	0.4763	0.7612	-0.019
Mof_H 	H 	0.1601	0.084	0.5753	0.007
Mof_H 	H 	0.1798	0.8673	0.6492	-0.027
Mof_C 	C 	0.7195	0.2052	0.5591	-4.854
Mof_H 	H 	0.7181	0.2242	0.5893	1.428
Mof_H 	H 	0.712	0.2571	0.5391	1.491
Mof_C 	C 	0.759	0.179	0.5582	5.926
Mof_H 	H 	0.7612	0.1678	0.5273	-1.974
Mof_H 	H 	0.777	0.2287	0.5699	-1.777
Mof_C 	C 	0.7709	0.0957	0.5853	-6.465
Mof_H 	H 	0.7711	0.1089	0.6167	1.709
Mof_H 	H 	0.7976	0.0785	0.5829	7.84
Mof_C 	C 	0.7443	0.0199	0.5707	4.892
Mof_H 	H 	0.7449	0.004	0.5398	-1.033
Mof_H 	H 	0.7527	0.9669	0.5895	-1.399
Mof_C 	C 	0.7039	0.0462	0.574	-3.331
Mof_H 	H 	0.6858	0.9955	0.5645	1.196
Mof_H 	H 	0.7032	0.0607	0.605	0.971
Mof_C 	C 	0.6908	0.128	0.5447	3.153
Mof_H 	H 	0.6901	0.1126	0.5134	-0.248
Mof_H 	H 	0.6643	0.1463	0.5475	-0.932
Mof_I 	I 	0.64812	0.58888	0.98974	-0.22
Mof_I 	I 	0.60916	0.74265	0.10007	-0.217
Mof_I 	I 	0.98169	0.6396	0.36598	-0.218
Mof_I 	I 	0.88683	0.73869	0.43588	-0.123
Mof_Zn	Zn	0.8227	0.1457	0.7186	0.573
Mof_I 	I 	0.86622	0.1799	0.79309	-0.08
Mof_I 	I 	0.75713	0.2268	0.6916	-0.222
Mof_C 	C 	0.723	0.961	0.556	-0.692
Mof_C 	C 	0.759	0.915	0.585	-0.613
Mof_H 	H 	0.7548	0.8574	0.5964	0.288
Mof_C 	C 	0.796	0.951	0.597	3.477
Mof_H 	H 	0.8138	0.9126	0.6147	-1.323
Mof_C 	C 	0.812	0.032	0.587	-6.648
Mof_C 	C 	0.791	0.104	0.56	-5.74
Mof_H 	H 	0.8069	0.1548	0.5566	1.763
Mof_C 	C 	0.751	0.112	0.537	1.896
Mof_C 	C 	0.719	0.043	0.536	-0.373
Mof_C 	C 	0.689	0.082	0.512	-0.965
Mof_H 	H 	0.6637	0.057	0.504	0.364
Mof_C 	C 	0.701	0.17	0.498	0.172
Mof_H 	H 	0.6824	0.208	0.4797	-0.067
Mof_C 	C 	0.736	0.192	0.511	-0.213
Mof_C 	C 	0.689	0.901	0.552	0.355
Mof_H 	H 	0.6966	0.8457	0.5688	-0.029
Mof_H 	H 	0.679	0.8868	0.5211	-0.017
Mof_H 	H 	0.6684	0.9312	0.5641	-0.317
Mof_C 	C 	0.855	0.045	0.606	3.417
Mof_H 	H 	0.86	0.0823	0.634	-1.019
Mof_C 	C 	0.873	0.09	0.569	-3.11
Mof_H 	H 	0.9006	0.1005	0.5792	0.976
Mof_H 	H 	0.8595	0.1474	0.5602	0.971
Mof_H 	H 	0.8686	0.0499	0.543	1.196
Mof_C 	C 	0.877	0.948	0.613	-2.394
Mof_H 	H 	0.9048	0.9571	0.6259	0.796
Mof_H 	H 	0.874	0.9177	0.5848	1.034
Mof_H 	H 	0.8654	0.9116	0.6335	1.7
Mof_C 	C 	0.762	0.278	0.506	0.255
Mof_H 	H 	0.7889	0.2674	0.5218	-0.012
Mof_H 	H 	0.7515	0.3311	0.5173	0.209
Mof_H 	H 	0.7622	0.2867	0.4743	-0.179
Mof_C 	C 	0.8862	0.8438	0.5754	-0.262
Mof_H 	H 	0.875	0.8677	0.5456	0.039
Mof_H 	H 	0.8911	0.7785	0.5741	0.139
Mof_C 	C 	0.9227	0.8986	0.6005	-0.06
Mof_H 	H 	0.9187	0.9639	0.5953	-0.078
Mof_H 	H 	0.9466	0.88	0.5907	0.038
Mof_C 	C 	0.9255	0.8767	0.6481	-0.034
Mof_H 	H 	0.9531	0.8816	0.6636	0.022
Mof_H 	H 	0.9105	0.9217	0.6611	-0.063
Mof_C 	C 	0.9101	0.7794	0.6564	-0.247
Mof_H 	H 	0.9225	0.7333	0.6409	0.11
Mof_H 	H 	0.9157	0.7652	0.6884	0.098
Mof_C 	C 	0.8641	0.7826	0.6373	0.249
Mof_H 	H 	0.8492	0.7839	0.6612	-0.058
Mof_H 	H 	0.8552	0.7313	0.6174	-0.025
Mof_C 	C 	0.8611	0.871	0.6123	-0.943
Mof_H 	H 	0.8337	0.8863	0.5988	0.542
Mof_H 	H 	0.8732	0.9212	0.6313	-0.492
Mof_I 	I 	0.85002	0.0868	0.51155	-0.348
Mof_Zn	Zn	0.87485	0.09876	0.43895	1.161
Mof_I 	I 	0.89145	0.2394	0.4067	-0.127
Mof_N 	N 	0.83405	0.0313	0.39221	-0.271
Mof_N 	N 	0.92303	0.0158	0.44394	-0.281
Mof_C 	C 	0.93635	0.9644	0.47877	0.085
Mof_C 	C 	0.9406	0.0119	0.41027	0.077
Mof_C 	C 	0.96734	0.9065	0.4803	-0.132
Mof_H 	H 	0.9242	0.9674	0.5034	-0.038
Mof_C 	C 	0.9714	0.9555	0.40886	-0.13
Mof_H 	H 	0.9316	0.0501	0.3857	-0.025
Mof_H 	H 	0.9762	0.8701	0.5056	0.076
Mof_C 	C 	0.98536	0.9021	0.44491	0.051
Mof_H 	H 	0.9828	0.9536	0.3836	0.075
Mof_C 	C 	0.0177	0.8391	0.44391	0.08
Mof_N 	N 	0.03931	0.8537	0.41392	-0.157
Mof_N 	N 	0.02231	0.7713	0.47287	-0.147
Mof_C 	C 	0.06766	0.7936	0.4141	-0.017
Mof_C 	C 	0.05061	0.7133	0.46851	0.081
Mof_C 	C 	0.09327	0.8084	0.38236	0.083
Mof_N 	N 	0.07455	0.7221	0.4404	-0.121
Mof_C 	C 	0.05492	0.6323	0.49702	0.053
Mof_C 	C 	0.08229	0.8677	0.34718	-0.232
Mof_C 	C 	0.12852	0.7637	0.38698	-0.177
Mof_C 	C 	0.02846	0.613	0.52287	-0.122
Mof_C 	C 	0.08652	0.5764	0.49889	-0.106
Mof_H 	H 	0.0582	0.899	0.3431	0.085
Mof_C 	C 	0.10707	0.8803	0.31823	0.251
Mof_H 	H 	0.1366	0.722	0.4103	0.071
Mof_C 	C 	0.15168	0.7809	0.35696	0.037
Mof_C 	C 	0.0341	0.5379	0.54962	0.073
Mof_H 	H 	0.0066	0.6509	0.5223	0.07
Mof_H 	H 	0.1052	0.5873	0.4812	0.071
Mof_C 	C 	0.09021	0.5038	0.52741	0.068
Mof_N 	N 	0.14141	0.8376	0.32283	-0.259
Mof_H 	H 	0.0995	0.9205	0.2942	-0.082
Mof_H 	H 	0.1761	0.7512	0.3606	-0.002
Mof_N 	N 	0.06489	0.4845	0.55245	-0.273
Mof_H 	H 	0.0153	0.524	0.5666	-0.013
Mof_H 	H 	0.1122	0.4656	0.5291	-0.022
Mof_Zn	Zn	0.17354	0.8543	0.27329	0.547
Mof_Zn	Zn	0.07771	0.37956	0.59766	1.158
Mof_I 	I 	0.12883	0.83336	0.1982	-0.281
Mof_I 	I 	0.2354	0.76495	0.2964	-0.259
Mof_N 	N 	0.18623	0.992	0.28096	-0.286
Mof_N 	N 	0.11841	0.4485	0.64436	-0.271
Mof_I 	I 	0.11457	0.2638	0.5581	-0.202
Mof_I 	I 	0.02207	0.3478	0.63138	-0.106
Mof_C 	C 	0.15014	0.4094	0.66822	0.054
Mof_C 	C 	0.11025	0.5322	0.6538	0.065
Mof_H 	H 	0.1562	0.3495	0.6615	-0.008
Mof_C 	C 	0.17454	0.4542	0.70263	-0.13
Mof_C 	C 	0.13329	0.5818	0.68688	-0.126
Mof_H 	H 	0.0875	0.5595	0.6369	-0.009
Mof_C 	C 	0.16623	0.542	0.71194	0.041
Mof_H 	H 	0.1967	0.4248	0.7196	0.076
Mof_H 	H 	0.1267	0.6419	0.6924	0.084
Mof_C 	C 	0.19094	0.5942	0.74772	0.095
Mof_N 	N 	0.18096	0.67967	0.75219	-0.139
Mof_N 	N 	0.22174	0.55302	0.7724	-0.142
Mof_C 	C 	0.20558	0.7255	0.7832	0.099
Mof_C 	C 	0.24251	0.6034	0.80474	0.09
Mof_N 	N 	0.236	0.6905	0.81132	-0.139
Mof_C 	C 	0.19859	0.8237	0.78416	0.061
Mof_C 	C 	0.27491	0.558	0.83486	0.049
Mof_C 	C 	0.22465	0.8816	0.80989	-0.136
Mof_C 	C 	0.16605	0.8606	0.75709	-0.133
Mof_C 	C 	0.2968	0.6019	0.8715	-0.107
Mof_C 	C 	0.28422	0.4696	0.82709	-0.124
Mof_H 	H 	0.2472	0.8591	0.8292	0.074
Mof_C 	C 	0.21721	0.9732	0.80695	0.092
Mof_C 	C 	0.16065	0.952	0.75685	0.065
Mof_H 	H 	0.1476	0.8231	0.7388	0.079
Mof_C 	C 	0.32547	0.5545	0.89927	0.081
Mof_H 	H 	0.292	0.6631	0.8772	0.087
Mof_C 	C 	0.31388	0.4276	0.85635	0.066
Mof_H 	H 	0.2703	0.4384	0.8019	0.087
Mof_H 	H 	0.2353	0.0127	0.8245	-0.101
Mof_H 	H 	0.1378	0.9763	0.7388	-0.019
Mof_H 	H 	0.3399	0.584	0.9247	0.007
Mof_H 	H 	0.3202	0.3673	0.8508	-0.027
Mof_C 	C 	0.7805	0.7052	0.9409	-4.857
Mof_H 	H 	0.7819	0.7242	0.9107	1.429
Mof_H 	H 	0.788	0.7571	0.9609	1.491
Mof_C 	C 	0.741	0.679	0.9418	5.926
Mof_H 	H 	0.7388	0.6678	0.9727	-1.974
Mof_H 	H 	0.723	0.7287	0.9301	-1.777
Mof_C 	C 	0.7291	0.5957	0.9147	-6.468
Mof_H 	H 	0.7289	0.6089	0.8833	1.71
Mof_H 	H 	0.7024	0.5785	0.9171	7.838
Mof_C 	C 	0.7557	0.5199	0.9293	4.899
Mof_H 	H 	0.7551	0.504	0.9602	-1.035
Mof_H 	H 	0.7473	0.4669	0.9105	-1.404
Mof_C 	C 	0.7961	0.5462	0.926	-3.337
Mof_H 	H 	0.8142	0.4955	0.9355	1.199
Mof_H 	H 	0.7968	0.5607	0.895	0.973
Mof_C 	C 	0.8092	0.628	0.9553	3.157
Mof_H 	H 	0.8099	0.6126	0.9866	-0.249
Mof_H 	H 	0.8357	0.6463	0.9525	-0.933
Mof_I 	I 	0.85188	0.08888	0.51026	-0.22
Mof_I 	I 	0.89084	0.24265	0.39993	-0.217
Mof_I 	I 	0.51831	0.1396	0.13402	-0.218
Mof_I 	I 	0.61317	0.23869	0.06412	-0.124
Mof_Zn	Zn	0.6773	0.6457	0.7814	0.573
Mof_I 	I 	0.63378	0.6799	0.70691	-0.081
Mof_I 	I 	0.74287	0.7268	0.8084	-0.222
Mof_C 	C 	0.777	0.461	0.944	-0.695
Mof_C 	C 	0.741	0.415	0.915	-0.605
Mof_H 	H 	0.7452	0.3574	0.9036	0.286
Mof_C 	C 	0.704	0.451	0.903	3.474
Mof_H 	H 	0.6862	0.4126	0.8853	-1.321
Mof_C 	C 	0.688	0.532	0.913	-6.646
Mof_C 	C 	0.709	0.604	0.94	-5.736
Mof_H 	H 	0.6931	0.6548	0.9434	1.762
Mof_C 	C 	0.749	0.612	0.963	1.893
Mof_C 	C 	0.781	0.543	0.964	-0.371
Mof_C 	C 	0.811	0.582	0.988	-0.966
Mof_H 	H 	0.8363	0.557	0.996	0.365
Mof_C 	C 	0.799	0.67	0.002	0.177
Mof_H 	H 	0.8176	0.708	0.0203	-0.069
Mof_C 	C 	0.764	0.692	0.989	-0.215
Mof_C 	C 	0.811	0.401	0.948	0.358
Mof_H 	H 	0.8034	0.3457	0.9312	-0.029
Mof_H 	H 	0.821	0.3868	0.9789	-0.017
Mof_H 	H 	0.8316	0.4312	0.9359	-0.318
Mof_C 	C 	0.645	0.545	0.894	3.415
Mof_H 	H 	0.64	0.5823	0.866	-1.018
Mof_C 	C 	0.627	0.59	0.931	-3.108
Mof_H 	H 	0.5994	0.6005	0.9208	0.975
Mof_H 	H 	0.6405	0.6474	0.9398	0.971
Mof_H 	H 	0.6314	0.5499	0.957	1.196
Mof_C 	C 	0.623	0.448	0.887	-2.392
Mof_H 	H 	0.5952	0.4571	0.8741	0.796
Mof_H 	H 	0.626	0.4177	0.9152	1.033
Mof_H 	H 	0.6346	0.4116	0.8665	1.699
Mof_C 	C 	0.738	0.778	0.994	0.266
Mof_H 	H 	0.7111	0.7674	0.9782	-0.015
Mof_H 	H 	0.7485	0.8311	0.9827	0.204
Mof_H 	H 	0.7378	0.7867	0.0257	-0.182
Mof_C 	C 	0.6138	0.3438	0.9246	-0.262
Mof_H 	H 	0.625	0.3677	0.9544	0.039
Mof_H 	H 	0.6089	0.2785	0.9259	0.139
Mof_C 	C 	0.5773	0.3986	0.8995	-0.06
Mof_H 	H 	0.5813	0.4639	0.9047	-0.078
Mof_H 	H 	0.5534	0.38	0.9093	0.039
Mof_C 	C 	0.5745	0.3767	0.8519	-0.034
Mof_H 	H 	0.5469	0.3816	0.8364	0.022
Mof_H 	H 	0.5895	0.4217	0.8389	-0.062
Mof_C 	C 	0.5899	0.2794	0.8436	-0.247
Mof_H 	H 	0.5775	0.2333	0.8591	0.11
Mof_H 	H 	0.5843	0.2652	0.8116	0.098
Mof_C 	C 	0.6359	0.2826	0.8627	0.249
Mof_H 	H 	0.6508	0.2839	0.8388	-0.058
Mof_H 	H 	0.6448	0.2313	0.8826	-0.025
Mof_C 	C 	0.6389	0.371	0.8877	-0.943
Mof_H 	H 	0.6663	0.3863	0.9012	0.542
Mof_H 	H 	0.6268	0.4212	0.8687	-0.492
Mof_I 	I 	0.35002	0.5868	0.51155	-0.348
Mof_Zn	Zn	0.37485	0.59876	0.43895	1.161
Mof_I 	I 	0.39145	0.7394	0.4067	-0.127
Mof_N 	N 	0.33405	0.5313	0.39221	-0.271
Mof_N 	N 	0.42303	0.5158	0.44394	-0.281
Mof_C 	C 	0.43635	0.4644	0.47877	0.085
Mof_C 	C 	0.4406	0.5119	0.41027	0.078
Mof_C 	C 	0.46734	0.4065	0.4803	-0.132
Mof_H 	H 	0.4242	0.4674	0.5034	-0.038
Mof_C 	C 	0.4714	0.4555	0.40886	-0.131
Mof_H 	H 	0.4316	0.5501	0.3857	-0.025
Mof_H 	H 	0.4762	0.3701	0.5056	0.076
Mof_C 	C 	0.48536	0.4021	0.44491	0.051
Mof_H 	H 	0.4828	0.4536	0.3836	0.075
Mof_C 	C 	0.5177	0.3391	0.44391	0.079
Mof_N 	N 	0.53931	0.3537	0.41392	-0.157
Mof_N 	N 	0.52231	0.2713	0.47287	-0.147
Mof_C 	C 	0.56766	0.2936	0.4141	-0.017
Mof_C 	C 	0.55061	0.2133	0.46851	0.081
Mof_C 	C 	0.59327	0.3084	0.38236	0.083
Mof_N 	N 	0.57455	0.2221	0.4404	-0.121
Mof_C 	C 	0.55492	0.1323	0.49702	0.053
Mof_C 	C 	0.58229	0.3677	0.34718	-0.232
Mof_C 	C 	0.62852	0.2637	0.38698	-0.177
Mof_C 	C 	0.52846	0.113	0.52287	-0.122
Mof_C 	C 	0.58652	0.0764	0.49889	-0.106
Mof_H 	H 	0.5582	0.399	0.3431	0.085
Mof_C 	C 	0.60707	0.3803	0.31823	0.251
Mof_H 	H 	0.6366	0.222	0.4103	0.071
Mof_C 	C 	0.65168	0.2809	0.35696	0.037
Mof_C 	C 	0.5341	0.0379	0.54962	0.074
Mof_H 	H 	0.5066	0.1509	0.5223	0.07
Mof_H 	H 	0.6052	0.0873	0.4812	0.071
Mof_C 	C 	0.59021	0.0038	0.52741	0.069
Mof_N 	N 	0.64141	0.3376	0.32283	-0.259
Mof_H 	H 	0.5995	0.4205	0.2942	-0.083
Mof_H 	H 	0.6761	0.2512	0.3606	-0.002
Mof_N 	N 	0.56489	0.9845	0.55245	-0.273
Mof_H 	H 	0.5153	0.024	0.5666	-0.013
Mof_H 	H 	0.6122	0.9656	0.5291	-0.022
Mof_Zn	Zn	0.67354	0.3543	0.27329	0.547
Mof_Zn	Zn	0.57771	0.87956	0.59766	1.158
Mof_I 	I 	0.62883	0.33336	0.1982	-0.281
Mof_I 	I 	0.7354	0.26495	0.2964	-0.259
Mof_N 	N 	0.68623	0.492	0.28096	-0.287
Mof_N 	N 	0.61841	0.9485	0.64436	-0.272
Mof_I 	I 	0.61457	0.7638	0.5581	-0.202
Mof_I 	I 	0.52207	0.8478	0.63138	-0.106
Mof_C 	C 	0.65014	0.9094	0.66822	0.055
Mof_C 	C 	0.61025	0.0322	0.6538	0.066
Mof_H 	H 	0.6562	0.8495	0.6615	-0.008
Mof_C 	C 	0.67454	0.9542	0.70263	-0.131
Mof_C 	C 	0.63329	0.0818	0.68688	-0.127
Mof_H 	H 	0.5875	0.0595	0.6369	-0.009
Mof_C 	C 	0.66623	0.042	0.71194	0.043
Mof_H 	H 	0.6967	0.9248	0.7196	0.076
Mof_H 	H 	0.6267	0.1419	0.6924	0.084
Mof_C 	C 	0.69094	0.0942	0.74772	0.094
Mof_N 	N 	0.68096	0.17967	0.75219	-0.138
Mof_N 	N 	0.72174	0.05302	0.7724	-0.142
Mof_C 	C 	0.70558	0.2255	0.7832	0.099
Mof_C 	C 	0.74251	0.1034	0.80474	0.09
Mof_N 	N 	0.736	0.1905	0.81132	-0.139
Mof_C 	C 	0.69859	0.3237	0.78416	0.062
Mof_C 	C 	0.77491	0.058	0.83486	0.051
Mof_C 	C 	0.72465	0.3816	0.80989	-0.139
Mof_C 	C 	0.66605	0.3606	0.75709	-0.135
Mof_C 	C 	0.7968	0.1019	0.8715	-0.109
Mof_C 	C 	0.78422	0.9696	0.82709	-0.126
Mof_H 	H 	0.7472	0.3591	0.8292	0.075
Mof_C 	C 	0.71721	0.4732	0.80695	0.097
Mof_C 	C 	0.66065	0.452	0.75685	0.067
Mof_H 	H 	0.6476	0.3231	0.7388	0.08
Mof_C 	C 	0.82547	0.0545	0.89927	0.083
Mof_H 	H 	0.792	0.1631	0.8772	0.087
Mof_C 	C 	0.81388	0.9276	0.85635	0.067
Mof_H 	H 	0.7703	0.9384	0.8019	0.087
Mof_H 	H 	0.7353	0.5127	0.8245	-0.104
Mof_H 	H 	0.6378	0.4763	0.7388	-0.019
Mof_H 	H 	0.8399	0.084	0.9247	0.007
Mof_H 	H 	0.8202	0.8673	0.8508	-0.027
Mof_C 	C 	0.2805	0.2052	0.9409	-4.836
Mof_H 	H 	0.2819	0.2242	0.9107	1.423
Mof_H 	H 	0.288	0.2571	0.9609	1.486
Mof_C 	C 	0.241	0.179	0.9418	5.904
Mof_H 	H 	0.2388	0.1678	0.9727	-1.968
Mof_H 	H 	0.223	0.2287	0.9301	-1.77
Mof_C 	C 	0.2291	0.0957	0.9147	-6.442
Mof_H 	H 	0.2289	0.1089	0.8833	1.703
Mof_H 	H 	0.2024	0.0785	0.9171	7.819
Mof_C 	C 	0.2557	0.0199	0.9293	4.873
Mof_H 	H 	0.2551	0.004	0.9602	-1.027
Mof_H 	H 	0.2473	0.9669	0.9105	-1.391
Mof_C 	C 	0.2961	0.0462	0.926	-3.314
Mof_H 	H 	0.3142	0.9955	0.9355	1.19
Mof_H 	H 	0.2968	0.0607	0.895	0.966
Mof_C 	C 	0.3092	0.128	0.9553	3.139
Mof_H 	H 	0.3099	0.1126	0.9866	-0.246
Mof_H 	H 	0.3357	0.1463	0.9525	-0.927
Mof_I 	I 	0.35188	0.58888	0.51026	-0.22
Mof_I 	I 	0.39084	0.74265	0.39993	-0.217
Mof_I 	I 	0.01831	0.6396	0.13402	-0.218
Mof_I 	I 	0.11317	0.73869	0.06412	-0.123
Mof_Zn	Zn	0.1773	0.1457	0.7814	0.573
Mof_I 	I 	0.13378	0.1799	0.70691	-0.08
Mof_I 	I 	0.24287	0.2268	0.8084	-0.222
Mof_C 	C 	0.277	0.961	0.944	-0.689
Mof_C 	C 	0.241	0.915	0.915	-0.617
Mof_H 	H 	0.2452	0.8574	0.9036	0.289
Mof_C 	C 	0.204	0.951	0.903	3.468
Mof_H 	H 	0.1862	0.9126	0.8853	-1.319
Mof_C 	C 	0.188	0.032	0.913	-6.63
Mof_C 	C 	0.209	0.104	0.94	-5.728
Mof_H 	H 	0.1931	0.1548	0.9434	1.76
Mof_C 	C 	0.249	0.112	0.963	1.893
Mof_C 	C 	0.281	0.043	0.964	-0.374
Mof_C 	C 	0.311	0.082	0.988	-0.959
Mof_H 	H 	0.3363	0.057	0.996	0.363
Mof_C 	C 	0.299	0.17	0.002	0.167
Mof_H 	H 	0.3176	0.208	0.0203	-0.065
Mof_C 	C 	0.264	0.192	0.989	-0.212
Mof_C 	C 	0.311	0.901	0.948	0.353
Mof_H 	H 	0.3034	0.8457	0.9312	-0.028
Mof_H 	H 	0.321	0.8868	0.9789	-0.016
Mof_H 	H 	0.3316	0.9312	0.9359	-0.315
Mof_C 	C 	0.145	0.045	0.894	3.409
Mof_H 	H 	0.14	0.0823	0.866	-1.016
Mof_C 	C 	0.127	0.09	0.931	-3.104
Mof_H 	H 	0.0994	0.1005	0.9208	0.974
Mof_H 	H 	0.1405	0.1474	0.9398	0.969
Mof_H 	H 	0.1314	0.0499	0.957	1.194
Mof_C 	C 	0.123	0.948	0.887	-2.39
Mof_H 	H 	0.0952	0.9571	0.8741	0.795
Mof_H 	H 	0.126	0.9177	0.9152	1.032
Mof_H 	H 	0.1346	0.9116	0.8665	1.697
Mof_C 	C 	0.238	0.278	0.994	0.247
Mof_H 	H 	0.2111	0.2674	0.9782	-0.01
Mof_H 	H 	0.2485	0.3311	0.9827	0.212
Mof_H 	H 	0.2378	0.2867	0.0257	-0.176
Mof_C 	C 	0.1138	0.8438	0.9246	-0.262
Mof_H 	H 	0.125	0.8677	0.9544	0.039
Mof_H 	H 	0.1089	0.7785	0.9259	0.138
Mof_C 	C 	0.0773	0.8986	0.8995	-0.06
Mof_H 	H 	0.0813	0.9639	0.9047	-0.078
Mof_H 	H 	0.0534	0.88	0.9093	0.038
Mof_C 	C 	0.0745	0.8767	0.8519	-0.034
Mof_H 	H 	0.0469	0.8816	0.8364	0.022
Mof_H 	H 	0.0895	0.9217	0.8389	-0.062
Mof_C 	C 	0.0899	0.7794	0.8436	-0.246
Mof_H 	H 	0.0775	0.7333	0.8591	0.11
Mof_H 	H 	0.0843	0.7652	0.8116	0.098
Mof_C 	C 	0.1359	0.7826	0.8627	0.249
Mof_H 	H 	0.1508	0.7839	0.8388	-0.058
Mof_H 	H 	0.1448	0.7313	0.8826	-0.025
Mof_C 	C 	0.1389	0.871	0.8877	-0.942
Mof_H 	H 	0.1663	0.8863	0.9012	0.541
Mof_H 	H 	0.1268	0.9212	0.8687	-0.492
_end
