data_functionalizedCrystal
_audit_creation_method	'EQeq! by Chris Wilmer'
_symmetry_space_group_name_H-M	'P1'
_symmetry_Int_Tables_number	1
_symmetry_cell_setting	triclinic
loop_
_symmetry_equiv_pos_as_xyz
  x,y,z
_cell_length_a	24.8489
_cell_length_b	24.8488
_cell_length_c	24.8488
_cell_angle_alpha	108.928
_cell_angle_beta	108.928
_cell_angle_gamma	110.563
loop_
_atom_site_label
_atom_site_type_symbol
_atom_site_fract_x
_atom_site_fract_y
_atom_site_fract_z
_atom_site_charge
Mof_Cu	Cu	0.05708	0.42762	0.9981	0.9
Mof_Cu	Cu	0.57048	0.57238	0.62946	0.9
Mof_Cu	Cu	0.94292	0.94102	0.37054	0.9
Mof_Cu	Cu	0.17147	0.16928	0.71689	0.904
Mof_Cu	Cu	0.45458	0.17147	0.00219	0.904
Mof_Cu	Cu	0.94102	0.57048	0.9981	0.9
Mof_Cu	Cu	0.16928	0.45239	0.99781	0.906
Mof_Cu	Cu	0.78327	0.5	0.28327	0.903
Mof_Cu	Cu	0.57238	0.94292	0.0019	0.901
Mof_Cu	Cu	0.42952	0.05898	0.0019	0.9
Mof_Cu	Cu	0.54542	0.54761	0.71689	0.905
Mof_Cu	Cu	0.5	0.12524	0.62524	0.904
Mof_Cu	Cu	0.5	0.78327	0.28327	0.903
Mof_Cu	Cu	0.21673	0.5	0.71673	0.903
Mof_Cu	Cu	0.5	0.87476	0.37476	0.904
Mof_Cu	Cu	0.05898	0.05708	0.62946	0.901
Mof_Cu	Cu	0.82853	0.54542	0.99781	0.905
Mof_Cu	Cu	0.87476	0.5	0.37476	0.904
Mof_Cu	Cu	0.83072	0.82853	0.28311	0.905
Mof_Cu	Cu	0.5	0.21673	0.71673	0.903
Mof_Cu	Cu	0.12524	0.5	0.62524	0.904
Mof_Cu	Cu	0.42762	0.42952	0.37054	0.901
Mof_Cu	Cu	0.45239	0.45458	0.28311	0.905
Mof_Cu	Cu	0.54761	0.83072	0.00219	0.906
Mof_H 	H 	0.1225	0.9037	0.5642	0.04
Mof_H 	H 	0.7325	0.8936	0.1581	0.074
Mof_H 	H 	0.6255	0.3747	0.6068	0.06
Mof_H 	H 	0.7937	0.5096	0.5089	0.091
Mof_H 	H 	0.8654	0.7079	0.3573	0.075
Mof_H 	H 	0.1523	0.8225	0.7706	0.052
Mof_H 	H 	0.7723	7.70232e-17	0.7723	0.105
Mof_H 	H 	0.9407	0.2237	0.8546	0.102
Mof_H 	H 	0.1132	0.92	0.6256	0.052
Mof_H 	H 	0.0144	0.7673	0.3833	0.042
Mof_H 	H 	0.7742	0.6347	0.7201	0.097
Mof_H 	H 	5.77674e-17	0.6088	0.6088	0.009
Mof_H 	H 	0.3506	0.5081	0.6427	0.077
Mof_H 	H 	0.3689	0.616	0.3833	0.041
Mof_H 	H 	0.0963	0.8775	0.4358	0.04
Mof_H 	H 	0.9481	0.1775	0.3298	0.052
Mof_H 	H 	0.4813	0.1845	0.3012	0.052
Mof_H 	H 	9.6279e-18	0.2277	0.2277	0.105
Mof_H 	H 	0.7195	0.0475	0.6306	0.09
Mof_H 	H 	0.6818	0.3426	0.3436	0.033
Mof_H 	H 	0.6088	0	0.6088	0.009
Mof_H 	H 	0.001	0.6574	0.3392	0.03
Mof_H 	H 	0.6634	0.3729	0.7141	0.044
Mof_H 	H 	0.6531	0.4445	0.566	0.04
Mof_H 	H 	0.6605	0.0963	0.2188	0.04
Mof_H 	H 	0.0135	0.3058	0.1791	0.05
Mof_H 	H 	0.1188	0.6216	0.1416	0.084
Mof_H 	H 	0.4899	0.7847	0.4982	0.105
Mof_H 	H 	0.484	0.1311	0.8353	0.065
Mof_H 	H 	0.48	0.9772	0.8584	0.082
Mof_H 	H 	0.6253	0.3745	0.3932	0.06
Mof_H 	H 	0.0871	0.6531	0.2086	0.04
Mof_H 	H 	0.6347	0.9146	0.8605	0.097
Mof_H 	H 	0.7847	0.2865	0.2948	0.105
Mof_H 	H 	0.0861	0.9407	0.717	0.102
Mof_H 	H 	0.9493	0.6634	0.2905	0.046
Mof_H 	H 	0.2237	0.3691	0.283	0.101
Mof_H 	H 	0.5187	0.8199	0.7032	0.052
Mof_H 	H 	0.5583	0.1225	0.2188	0.04
Mof_H 	H 	0.7679	0.0187	0.3932	0.064
Mof_H 	H 	0.9993	0.4904	0.2841	0.09
Mof_H 	H 	0.5744	0.7325	0.8389	0.072
Mof_H 	H 	0.8868	0.5124	0.8068	0.052
Mof_H 	H 	0.0735	0.6979	0.1808	0.044
Mof_H 	H 	0.3747	0.7679	0.7492	0.06
Mof_H 	H 	0.8733	0.6942	0.7077	0.05
Mof_H 	H 	0.824	0.1472	0.331	0.056
Mof_H 	H 	0.5101	0.0083	0.2948	0.102
Mof_H 	H 	0.4417	0.6605	0.5642	0.04
Mof_H 	H 	0.5781	0.3641	0.3472	0.037
Mof_H 	H 	0.8936	0.7355	0.1611	0.074
Mof_H 	H 	0.92	0.2944	0.8068	0.051
Mof_H 	H 	0.6588	0.9493	0.2859	0.046
Mof_H 	H 	0.384	0.6311	0.6167	0.041
Mof_H 	H 	0.9146	0.0541	0.2799	0.099
Mof_H 	H 	0.3513	0.7042	0.8353	0.065
Mof_H 	H 	0.3366	0.0507	0.7095	0.045
Mof_H 	H 	0.2153	0.5101	0.5018	0.105
Mof_H 	H 	0.4219	0.7691	0.786	0.037
Mof_H 	H 	0.9459	0.0854	0.7201	0.098
Mof_H 	H 	0.1172	0.98	0.4898	0.091
Mof_H 	H 	0.516	0.3513	0.6471	0.065
Mof_H 	H 	0.0541	0.7742	0.1395	0.099
Mof_H 	H 	0.3382	0.6818	0.3392	0.033
Mof_H 	H 	0.8528	0.176	0.669	0.056
Mof_H 	H 	0.7763	0.0593	0.1454	0.103
Mof_H 	H 	0.8828	0.3726	0.8628	0.094
Mof_H 	H 	0.0507	0.3412	0.7141	0.045
Mof_H 	H 	0.0889	0.7195	0.672	0.09
Mof_H 	H 	0.2958	0.6487	0.1647	0.065
Mof_H 	H 	0.2921	0.1346	0.6427	0.076
Mof_H 	H 	0.6574	0.3182	0.6564	0.033
Mof_H 	H 	0.2063	0.7152	0.7159	0.091
Mof_H 	H 	0.4829	0.3021	0.3756	0.044
Mof_H 	H 	0.3641	0.0169	0.786	0.035
Mof_H 	H 	0.4904	0.2063	0.4911	0.091
Mof_H 	H 	0.5831	0.9525	0.672	0.09
Mof_H 	H 	0.3412	0.6271	0.2905	0.044
Mof_H 	H 	0.8199	0.1167	0.3012	0.052
Mof_H 	H 	0.6271	0.3366	0.2859	0.044
Mof_H 	H 	0.9037	0.3395	0.7812	0.04
Mof_H 	H 	0.0169	0.2309	0.6528	0.035
Mof_H 	H 	0.02	0.8828	0.5102	0.089
Mof_H 	H 	0.6311	0.0144	0.2471	0.042
Mof_H 	H 	0.0228	0.52	0.1416	0.081
Mof_H 	H 	0.616	0.2327	0.2471	0.041
Mof_H 	H 	0.1845	0.8833	0.7032	0.052
Mof_H 	H 	0.2258	0.9459	0.8605	0.098
Mof_H 	H 	0.2848	0.7937	0.2841	0.091
Mof_H 	H 	0.0007	0.2848	0.4911	0.09
Mof_H 	H 	0.8833	0.1801	0.6988	0.052
Mof_H 	H 	0.98	0.4902	0.8628	0.093
Mof_H 	H 	0.3426	0.999	0.6608	0.031
Mof_H 	H 	0.7673	0.384	0.7529	0.041
Mof_H 	H 	0.2805	0.9111	0.328	0.09
Mof_H 	H 	0.7135	0.2153	0.7052	0.105
Mof_H 	H 	0.2317	0.9588	0.5937	0.028
Mof_H 	H 	0.2865	0.9917	0.5018	0.103
Mof_H 	H 	0.7683	0.362	0.7271	0.029
Mof_H 	H 	0.507	0.1838	0.331	0.056
Mof_H 	H 	0.9525	0.2805	0.3694	0.09
Mof_H 	H 	0.8155	0.5187	0.6988	0.052
Mof_H 	H 	0.999	0.3382	0.6564	0.031
Mof_H 	H 	0.3729	0.6588	0.7095	0.044
Mof_H 	H 	0.1073	0.4829	0.1808	0.045
Mof_H 	H 	0.6309	0.7763	0.717	0.101
Mof_H 	H 	0.1167	0.8155	0.2968	0.052
Mof_H 	H 	0.52	0.3784	0.4972	0.084
Mof_H 	H 	0.6349	0.0412	0.2729	0.028
Mof_H 	H 	0.362	0.6349	0.5937	0.029
Mof_H 	H 	0.176	0.507	0.3232	0.056
Mof_H 	H 	0.9856	0.3689	0.7529	0.042
Mof_H 	H 	0.9265	0.1073	0.6244	0.044
Mof_H 	H 	0.1215	0.5555	0.2086	0.041
Mof_H 	H 	0.1775	0.8477	0.2294	0.052
Mof_H 	H 	0.6979	0.5171	0.6244	0.044
Mof_H 	H 	0.8775	0.4417	0.7812	0.04
Mof_H 	H 	0.9772	0.1188	0.4972	0.081
Mof_H 	H 	0.6494	0.2921	0.1575	0.077
Mof_H 	H 	0.5096	0.0007	0.7159	0.091
Mof_H 	H 	0.08	0.8868	0.3744	0.051
Mof_H 	H 	0.4256	0.2645	0.1581	0.072
Mof_H 	H 	0.3469	0.9129	0.7914	0.04
Mof_H 	H 	0.1311	0.2958	0.6471	0.064
Mof_H 	H 	0.8927	0.0735	0.3756	0.044
Mof_H 	H 	0.2277	-1.92558e-17	0.2277	0.105
Mof_H 	H 	0.1472	0.8162	0.3232	0.056
Mof_H 	H 	0.1656	0.8733	0.1791	0.049
Mof_H 	H 	0.0412	0.7683	0.4063	0.028
Mof_H 	H 	0.5171	0.8927	0.8192	0.045
Mof_H 	H 	0.8785	0.0871	0.434	0.04
Mof_H 	H 	0.3817	0.1523	0.3298	0.052
Mof_H 	H 	0.8225	0.0519	0.6702	0.052
Mof_H 	H 	0.6216	0.48	0.5028	0.084
Mof_H 	H 	0.0593	0.9139	0.283	0.103
Mof_H 	H 	0.2944	0.4876	0.3744	0.052
Mof_H 	H 	0.5124	0.7056	0.6256	0.052
Mof_H 	H 	0.3182	0.6618	0.6608	0.033
Mof_H 	H 	0.2675	0.4256	0.1611	0.072
Mof_H 	H 	0.3726	0.5098	0.4898	0.094
Mof_H 	H 	0.1801	0.4813	0.2968	0.052
Mof_H 	H 	0.9917	0.4899	0.7052	0.104
Mof_H 	H 	0.1838	0.8528	0.6768	0.056
Mof_H 	H 	0.0187	0.6255	0.2508	0.064
Mof_H 	H 	0.0519	0.3817	0.2294	0.052
Mof_H 	H 	0.5081	0.8654	0.1575	0.076
Mof_H 	H 	0.493	0.824	0.6768	0.056
Mof_H 	H 	0.7152	0.9993	0.5089	0.09
Mof_H 	H 	0.5098	0.02	0.1372	0.091
Mof_H 	H 	0.2309	0.5781	0.214	0.037
Mof_H 	H 	0.0475	0.4169	0.328	0.09
Mof_H 	H 	0.9129	0.1215	0.566	0.04
Mof_H 	H 	0.9588	0.3651	0.7271	0.028
Mof_H 	H 	0.3395	0.5583	0.4358	0.04
Mof_H 	H 	0.9139	0.6309	0.8546	0.101
Mof_H 	H 	0.1346	0.4919	0.8425	0.076
Mof_H 	H 	0.6359	0.4219	0.6528	0.037
Mof_H 	H 	0.1267	0.8344	0.8209	0.05
Mof_H 	H 	0.3021	0.9265	0.8192	0.044
Mof_H 	H 	0.7355	0.5744	0.8419	0.072
Mof_H 	H 	0.7042	0.8689	0.3529	0.064
Mof_H 	H 	0.3784	0.8812	0.8584	0.084
Mof_H 	H 	1.92558e-17	0.7723	0.7723	0.105
Mof_H 	H 	0.3653	0.2258	0.2799	0.097
Mof_H 	H 	0.3651	0.638	0.4063	0.029
Mof_H 	H 	0.0083	0.7135	0.4982	0.101
Mof_H 	H 	0.8812	0.0228	0.5028	0.08
Mof_H 	H 	0.4876	0.1132	0.1932	0.052
Mof_H 	H 	0.6942	0.9865	0.8209	0.05
Mof_H 	H 	0.3058	0.1267	0.2923	0.05
Mof_H 	H 	0.638	0.2317	0.2729	0.029
Mof_H 	H 	0.1064	0.2675	0.8419	0.073
Mof_H 	H 	0.3912	0	0.3912	0.009
Mof_H 	H 	0.4169	0.0889	0.3694	0.09
Mof_H 	H 	0.9813	0.2321	0.6068	0.062
Mof_H 	H 	0.7056	0.08	0.1932	0.051
Mof_H 	H 	0.6274	0.1172	0.1372	0.094
Mof_H 	H 	0.3691	0.0861	0.1454	0.101
Mof_H 	H 	0.2327	0.9856	0.6167	0.042
Mof_H 	H 	0.4919	0.6494	0.3573	0.077
Mof_H 	H 	0.3745	0.9813	0.7492	0.063
Mof_H 	H 	0.7691	0.9831	0.3472	0.034
Mof_H 	H 	0.6183	0.9481	0.7706	0.052
Mof_H 	H 	0.6618	0.001	0.3436	0.03
Mof_H 	H 	0.2645	0.1064	0.8389	0.073
Mof_H 	H 	0.8162	0.493	0.669	0.056
Mof_H 	H 	0.4445	0.8785	0.7914	0.04
Mof_H 	H 	0.0854	0.3653	0.1395	0.097
Mof_H 	H 	0.9111	0.5831	0.6306	0.09
Mof_H 	H 	0.8689	0.516	0.1647	0.064
Mof_H 	H 	0.2321	0.6253	0.2508	0.06
Mof_H 	H 	0.8477	0.6183	0.6702	0.052
Mof_H 	H 	0.8344	0.0135	0.7077	0.049
Mof_H 	H 	0.4902	0.6274	0.5102	0.094
Mof_H 	H 	0.6487	0.484	0.3529	0.065
Mof_H 	H 	0.9831	0.6359	0.214	0.034
Mof_H 	H 	0.5555	0.3469	0.434	0.04
Mof_H 	H 	-0	0.3912	0.3912	0.009
Mof_H 	H 	0.7079	0.3506	0.8425	0.077
Mof_H 	H 	0.9865	0.1656	0.2923	0.049
Mof_C 	C 	0.5736	0.3224	0.3316	-0.015
Mof_C 	C 	0.5089	0.9384	0.1377	-0.02
Mof_C 	C 	0.6078	0.33	0.3648	-0.074
Mof_C 	C 	0.0658	0.1471	0.7469	0.337
Mof_C 	C 	0.7099	0.196	0.2199	0.169
Mof_C 	C 	0.3224	0.9908	0.7488	-0.007
Mof_C 	C 	0.4914	0.6646	0.3966	-0.048
Mof_C 	C 	0.308	0.603	0.297	-0.028
Mof_C 	C 	0.0239	0.804	0.5139	0.161
Mof_C 	C 	0.6774	0.0483	0.2927	-0.022
Mof_C 	C 	0.1993	0.0616	0.5705	-0.02
Mof_C 	C 	0.8045	0.0205	0.516	0.143
Mof_C 	C 	0.4903	0.7457	0.481	-0.129
Mof_C 	C 	0.9423	0.5198	0.1445	-0.059
Mof_C 	C 	0.438	0.8323	0.9165	0.362
Mof_C 	C 	0.972	0.3247	0.7283	-0.051
Mof_C 	C 	0.7115	0.4955	0.516	0.149
Mof_C 	C 	0.2355	0.0628	0.8255	-0.037
Mof_C 	C 	0.5097	0.9907	0.2554	-0.123
Mof_C 	C 	0.907	0.5132	0.1776	-0.016
Mof_C 	C 	0.707	0.0268	0.6532	-0.145
Mof_C 	C 	0.7855	0.4689	0.678	-0.041
Mof_C 	C 	0.9462	0.6264	0.6532	-0.145
Mof_C 	C 	0.4774	0.8762	0.7794	0.001
Mof_C 	C 	0.804	0.2901	0.7801	0.169
Mof_C 	C 	0.011	0.308	0.705	-0.031
Mof_C 	C 	0.397	0.692	0.703	-0.028
Mof_C 	C 	0.0287	0.2562	0.8567	-0.012
Mof_C 	C 	0.692	0.989	0.295	-0.033
Mof_C 	C 	0.8713	0.6238	0.8349	-0.125
Mof_C 	C 	0.3763	0.7684	0.2679	0.349
Mof_C 	C 	0.0685	0.7233	0.261	0.028
Mof_C 	C 	0.7909	0.1075	0.322	-0.041
Mof_C 	C 	0.093	0.2706	0.6062	-0.017
Mof_C 	C 	0.1287	0.9636	0.7525	-0.13
Mof_C 	C 	0.0023	0.4904	0.8391	-0.135
Mof_C 	C 	0.1152	0.8222	0.7758	-0.026
Mof_C 	C 	0.3712	0.5089	0.5705	-0.017
Mof_C 	C 	0.2145	0.8925	0.6834	-0.041
Mof_C 	C 	0.5132	0.3356	0.6062	-0.018
Mof_C 	C 	0.3007	0.0686	0.5777	-0.014
Mof_C 	C 	0.1066	0.4928	0.73	0.315
Mof_C 	C 	0.0872	0.802	0.3624	0.02
Mof_C 	C 	0.3354	0.5086	0.6034	-0.048
Mof_C 	C 	0.9342	0.6811	0.0813	0.336
Mof_C 	C 	0.1259	0.894	0.5995	-0.007
Mof_C 	C 	0.5022	0.2723	0.5739	-0.038
Mof_C 	C 	0.264	0.7513	0.2491	-0.108
Mof_C 	C 	0.6261	0.8718	0.8385	-0.127
Mof_C 	C 	0.8323	0.9158	0.3943	0.364
Mof_C 	C 	0.641	0	0.641	0.065
Mof_C 	C 	0.359	3.85116e-17	0.359	0.066
Mof_C 	C 	0.7556	0.3847	0.7073	-0.023
Mof_C 	C 	0.9682	0.7443	0.1415	-0.02
Mof_C 	C 	0.6984	0.9283	0.4261	-0.041
Mof_C 	C 	0.0268	0.3736	0.3198	-0.145
Mof_C 	C 	0.0842	0.1677	0.6057	0.363
Mof_C 	C 	0.7055	0.106	0.2319	-0.006
Mof_C 	C 	0.2372	0.5072	0.6138	0.315
Mof_C 	C 	0.9158	0.5215	0.0835	0.363
Mof_C 	C 	0.0695	0.7174	0.2651	0.012
Mof_C 	C 	0.0628	0.2373	0.8273	-0.036
Mof_C 	C 	0.3634	0.1489	0.2163	0.172
Mof_C 	C 	0.4802	0.0577	0.8555	-0.058
Mof_C 	C 	0.5604	0.198	0.2852	0.02
Mof_C 	C 	0.9128	0.2752	0.7148	0.02
Mof_C 	C 	0.4904	0.6513	0.4881	-0.137
Mof_C 	C 	0.6237	0.8916	0.3921	0.35
Mof_C 	C 	0.4448	0.7248	0.6418	0.022
Mof_C 	C 	0.6753	0.028	0.2717	-0.052
Mof_C 	C 	0.4736	0.7055	0.5995	-0.006
Mof_C 	C 	0.0627	0.3302	0.9067	0.331
Mof_C 	C 	0.1282	0.3739	0.1615	-0.127
Mof_C 	C 	0.7233	0.4623	0.6548	0.027
Mof_C 	C 	0.4978	0.2487	0.5127	-0.108
Mof_C 	C 	0.2901	0.51	0.4861	0.169
Mof_C 	C 	0.172	0.0287	0.7725	-0.011
Mof_C 	C 	0.4909	0.723	0.4223	-0.012
Mof_C 	C 	0.6288	0.1993	0.1377	-0.017
Mof_C 	C 	0.5215	0.438	0.6057	0.362
Mof_C 	C 	0.723	0.3007	0.2321	-0.012
Mof_C 	C 	0.989	0.694	0.297	-0.033
Mof_C 	C 	0.3247	0.5964	0.3527	-0.049
Mof_C 	C 	0.9314	0.6993	0.4223	-0.016
Mof_C 	C 	0.802	0.4396	0.7148	0.02
Mof_C 	C 	0.7563	0.4036	0.7283	-0.049
Mof_C 	C 	0.2022	0.6247	0.1445	-0.056
Mof_C 	C 	0.6993	0.277	0.7679	-0.012
Mof_C 	C 	0.5377	0.2767	0.3452	0.027
Mof_C 	C 	0.5264	0.1259	0.2319	-0.007
Mof_C 	C 	0.6264	0.9732	0.6802	-0.145
Mof_C 	C 	0.5022	0.0149	0.7509	-0.106
Mof_C 	C 	0.1955	0.7115	0.216	0.149
Mof_C 	C 	0.3226	0.6153	0.3709	-0.023
Mof_C 	C 	0.5311	0.2145	0.322	-0.041
Mof_C 	C 	0.5214	0.2161	0.3097	-0.046
Mof_C 	C 	0.9908	0.242	0.6684	-0.008
Mof_C 	C 	0.5072	0.8934	0.27	0.316
Mof_C 	C 	0.2562	0.3995	0.2275	-0.015
Mof_C 	C 	0.9064	0.2117	0.6903	-0.046
Mof_C 	C 	0.3065	0.6416	0.3307	0.006
Mof_C 	C 	0.4689	0.7909	0.6834	-0.041
Mof_C 	C 	0.5005	0.1084	0.7321	0.349
Mof_C 	C 	0.6366	0.8529	0.7855	0.172
Mof_C 	C 	0.6481	0.4844	0.4835	-0.111
Mof_C 	C 	0.7248	0.0872	0.2852	0.02
Mof_C 	C 	0.1925	0.5377	0.261	0.027
Mof_C 	C 	0.6644	0.4868	0.3938	-0.019
Mof_C 	C 	0.5374	0.925	0.0936	0.331
Mof_C 	C 	0.2767	0.9315	0.739	0.027
Mof_C 	C 	0.9305	0.1956	0.6479	0.013
Mof_C 	C 	0.8007	0.3712	0.8623	-0.017
Mof_C 	C 	0.59	0.7627	0.8255	-0.033
Mof_C 	C 	0.6698	0.9373	0.0933	0.331
Mof_C 	C 	0.6513	0.1632	0.1609	-0.137
Mof_C 	C 	0.268	0.0948	0.6034	-0.046
Mof_C 	C 	0.917	0.2752	0.72	0.022
Mof_C 	C 	0.9713	0.828	0.2275	-0.009
Mof_C 	C 	0.676	0.9777	0.7305	0.11
Mof_C 	C 	0.9732	0.293	0.3468	-0.145
Mof_C 	C 	0.9372	0.7645	0.1745	-0.038
Mof_C 	C 	-1.92558e-17	0.641	0.641	0.065
Mof_C 	C 	0.6811	0.5998	0.7469	0.338
Mof_C 	C 	0.5086	0.9052	0.1732	-0.046
Mof_C 	C 	0.3356	0.7294	0.8224	-0.018
Mof_C 	C 	0.2599	0	0.2599	-0.158
Mof_C 	C 	0.2706	0.6644	0.1776	-0.018
Mof_C 	C 	0.4623	0.8075	0.739	0.027
Mof_C 	C 	0.7401	0	0.7401	-0.159
Mof_C 	C 	0.3109	0.9758	0.6693	0.011
Mof_C 	C 	0.4523	0.8044	0.7349	0.014
Mof_C 	C 	0.0149	0.264	0.5127	-0.105
Mof_C 	C 	0.0717	0.3016	0.5739	-0.04
Mof_C 	C 	0.4995	0.2316	0.6079	0.349
Mof_C 	C 	0.6234	0.2372	0.73	0.315
Mof_C 	C 	0.324	0.0545	0.3017	0.109
Mof_C 	C 	0.1956	0.5477	0.2651	0.014
Mof_C 	C 	0.6153	0.2444	0.2927	-0.023
Mof_C 	C 	0.2945	0.5264	0.4005	-0.006
Mof_C 	C 	0.7627	0.9372	0.1727	-0.038
Mof_C 	C 	0.4626	0.5562	0.3876	0.33
Mof_C 	C 	0.9517	0.3226	0.7073	-0.023
Mof_C 	C 	0.3189	0.0658	0.9187	0.336
Mof_C 	C 	0.6005	0.7438	0.7725	-0.015
Mof_C 	C 	0.828	0.6005	0.8567	-0.015
Mof_C 	C 	0.4235	0.156	0.0933	0.332
Mof_C 	C 	0.2437	0.972	0.6473	-0.051
Mof_C 	C 	0.2647	0.0093	0.519	-0.124
Mof_C 	C 	0.894	0.2945	0.7681	-0.006
Mof_C 	C 	0.8368	0.3487	0.8391	-0.137
Mof_C 	C 	0.7174	0.4523	0.6479	0.014
Mof_C 	C 	0.7628	0.3766	0.27	0.315
Mof_C 	C 	0.3922	0.757	0.7222	-0.074
Mof_C 	C 	0.7978	0.9423	0.4225	-0.06
Mof_C 	C 	0.8718	0.0333	0.2457	-0.133
Mof_C 	C 	0.7645	0.59	0.8273	-0.034
Mof_C 	C 	0.6028	0.8267	0.8585	-0.026
Mof_C 	C 	0.3739	0.2124	0.2457	-0.127
Mof_C 	C 	0.4438	0.5374	0.6124	0.33
Mof_C 	C 	0.3847	0.6774	0.6291	-0.023
Mof_C 	C 	0.0364	0.8713	0.2475	-0.132
Mof_C 	C 	0.9373	0.844	0.2675	0.331
Mof_C 	C 	0.33	0.9652	0.7222	-0.083
Mof_C 	C 	0.736	0.9851	0.4873	-0.103
Mof_C 	C 	0.7528	0.0223	0.6983	0.109
Mof_C 	C 	0.7457	0.2647	0.2554	-0.128
Mof_C 	C 	0.925	0.8314	0.3876	0.332
Mof_C 	C 	0.5045	0.2885	0.484	0.149
Mof_C 	C 	0.8222	0.0464	0.707	-0.026
Mof_C 	C 	0.8267	0.9682	0.2239	-0.021
Mof_C 	C 	0.2111	0.3762	0.2475	-0.125
Mof_C 	C 	0.732	0.3354	0.8268	-0.048
Mof_C 	C 	0.277	0.5091	0.5777	-0.012
Mof_C 	C 	0.1632	0.0023	0.5119	-0.131
Mof_C 	C 	0.6238	0.7889	0.7525	-0.125
Mof_C 	C 	0.0242	0.6891	0.3307	0.015
Mof_C 	C 	0.293	0.9462	0.3198	-0.145
Mof_C 	C 	0.2885	0.8045	0.784	0.149
Mof_C 	C 	0.028	0.7563	0.3527	-0.052
Mof_C 	C 	0.8314	0.4438	0.9064	0.33
Mof_C 	C 	0.3995	0.172	0.1433	-0.015
Mof_C 	C 	0.075	0.4626	0.9064	0.33
Mof_C 	C 	0.1238	0.5226	0.2206	0.001
Mof_C 	C 	0.694	0.397	0.705	-0.028
Mof_C 	C 	0.0333	0.7876	0.1615	-0.134
Mof_C 	C 	0.698	0.4774	0.6012	0.001
Mof_C 	C 	0.2487	0.736	0.7509	-0.108
Mof_C 	C 	0.0948	0.4914	0.8268	-0.048
Mof_C 	C 	0.8741	0.4736	0.7681	-0.006
Mof_C 	C 	0.3972	0.2557	0.2239	-0.026
Mof_C 	C 	0.6606	0.9536	0.7758	-0.027
Mof_C 	C 	0.7876	0.6261	0.7543	-0.127
Mof_C 	C 	0.4036	0.6753	0.6473	-0.049
Mof_C 	C 	-9.6279e-18	0.2599	0.2599	-0.158
Mof_C 	C 	0.9667	0.1282	0.7543	-0.131
Mof_C 	C 	0.9977	0.8368	0.4881	-0.127
Mof_C 	C 	0.8075	0.0685	0.3452	0.028
Mof_C 	C 	0.5477	0.2826	0.3521	0.014
Mof_C 	C 	0.0577	0.2022	0.5775	-0.059
Mof_C 	C 	0.3766	0.1066	0.6138	0.316
Mof_C 	C 	0.0348	0.67	0.2778	-0.089
Mof_C 	C 	0.6646	0.268	0.1732	-0.048
Mof_C 	C 	0.2161	0.9064	0.6947	-0.046
Mof_C 	C 	0.562	0.4785	0.3943	0.362
Mof_C 	C 	0.0223	0.324	0.2695	0.109
Mof_C 	C 	0.5226	0.302	0.3988	0.001
Mof_C 	C 	0.5765	0.6698	0.7325	0.332
Mof_C 	C 	0.1471	0.4002	0.0813	0.338
Mof_C 	C 	0.2826	0.9305	0.7349	0.012
Mof_C 	C 	0.5562	0.1686	0.0936	0.33
Mof_C 	C 	0.8934	0.6234	0.3862	0.316
Mof_C 	C 	0.8044	0.0695	0.3521	0.012
Mof_C 	C 	0.7883	0.0936	0.3097	-0.046
Mof_C 	C 	0.9907	0.7353	0.481	-0.12
Mof_C 	C 	0.5964	0.2437	0.2717	-0.049
Mof_C 	C 	0.3394	0.1152	0.293	-0.027
Mof_C 	C 	0.8354	0.9991	0.4835	-0.102
Mof_C 	C 	0.8762	0.0968	0.3988	0.002
Mof_C 	C 	0.67	0.3922	0.6352	-0.074
Mof_C 	C 	0.6776	0.4264	0.6684	-0.015
Mof_C 	C 	9.6279e-18	0.359	0.359	0.066
Mof_C 	C 	0.3487	0.5096	0.5119	-0.137
Mof_C 	C 	0.243	0.6078	0.2778	-0.074
Mof_C 	C 	0.7839	0.4786	0.6903	-0.046
Mof_C 	C 	0.4002	0.3189	0.2531	0.338
Mof_C 	C 	0.4911	0.6288	0.4295	-0.017
Mof_C 	C 	0.5552	0.197	0.28	0.022
Mof_C 	C 	0.0464	0.3394	0.2242	-0.026
Mof_C 	C 	0.9652	0.243	0.6352	-0.082
Mof_C 	C 	0.4978	0.0717	0.7701	-0.039
Mof_C 	C 	0.3762	0.1287	0.1651	-0.125
Mof_C 	C 	0.41	0.2355	0.1727	-0.034
Mof_C 	C 	0.4928	0.7628	0.3862	0.315
Mof_C 	C 	0.9315	0.1925	0.6548	0.028
Mof_C 	C 	0.3753	0.7978	0.8555	-0.056
Mof_C 	C 	0.9991	0.5156	0.1637	-0.104
Mof_C 	C 	0.7248	0.083	0.28	0.022
Mof_C 	C 	0.7443	0.6028	0.7761	-0.026
Mof_C 	C 	0.4396	0.7248	0.6376	0.02
Mof_C 	C 	0.2752	0.5552	0.3582	0.022
Mof_C 	C 	0.2444	0.9517	0.6291	-0.023
Mof_C 	C 	0.49	0.7099	0.5139	0.169
Mof_C 	C 	0.2472	0.9455	0.2695	0.109
Mof_C 	C 	0.2091	0.5311	0.3166	-0.041
Mof_C 	C 	0.0616	0.4911	0.8623	-0.018
Mof_C 	C 	0.0205	0.5045	0.216	0.144
Mof_C 	C 	0.1084	0.3763	0.6079	0.349
Mof_C 	C 	0.9455	0.676	0.6983	0.11
Mof_C 	C 	0.1686	0.075	0.6124	0.331
Mof_C 	C 	0.0318	0.1733	0.7761	-0.022
Mof_C 	C 	0.757	0.0348	0.3648	-0.089
Mof_C 	C 	0.1075	0.7855	0.3166	-0.041
Mof_C 	C 	0.5096	0.9977	0.1609	-0.131
Mof_C 	C 	0.6891	0.3584	0.6649	0.006
Mof_C 	C 	0.302	0.9032	0.7794	0.002
Mof_C 	C 	0.5156	0.3519	0.5165	-0.111
Mof_C 	C 	0.9795	0.1955	0.484	0.146
Mof_C 	C 	0.6935	0.0242	0.3351	0.015
Mof_C 	C 	0.9032	0.1238	0.6012	0.001
Mof_C 	C 	0.4844	0.0009	0.8363	-0.108
Mof_C 	C 	0.9326	0.1471	0.7837	0.174
Mof_C 	C 	0.803	0.4448	0.72	0.022
Mof_C 	C 	0.0686	0.4909	0.7679	-0.013
Mof_C 	C 	0.7277	0.4978	0.4261	-0.038
Mof_C 	C 	0.2373	0.41	0.1745	-0.034
Mof_C 	C 	0.197	0.917	0.6418	0.022
Mof_C 	C 	0.1471	0.3634	0.2145	0.172
Mof_C 	C 	0.9761	0.49	0.7801	0.168
Mof_C 	C 	0.1778	0.8848	0.2242	-0.026
Mof_C 	C 	0.3302	0.4235	0.2675	0.332
Mof_C 	C 	0.9052	0.732	0.3966	-0.044
Mof_C 	C 	0.7889	0.0364	0.1651	-0.131
Mof_C 	C 	0.306	0.011	0.703	-0.031
Mof_C 	C 	0.3016	0.7277	0.2299	-0.038
Mof_C 	C 	0.2543	0.5097	0.519	-0.129
Mof_C 	C 	0.9777	0.2472	0.3017	0.109
Mof_C 	C 	0.0538	0.707	0.6802	-0.145
Mof_C 	C 	0.083	0.803	0.3582	0.022
Mof_C 	C 	0.198	0.9128	0.6376	0.02
Mof_C 	C 	0.1677	0.562	0.0835	0.362
Mof_C 	C 	0.0093	0.4903	0.7446	-0.127
Mof_C 	C 	0.156	0.0627	0.7325	0.331
Mof_C 	C 	0.0483	0.7556	0.3709	-0.022
Mof_C 	C 	0.7684	0.5005	0.3921	0.349
Mof_C 	C 	0.5198	0.3753	0.5775	-0.056
Mof_C 	C 	0.0968	0.698	0.2206	0.002
Mof_C 	C 	0.0674	0.8511	0.2145	0.176
Mof_C 	C 	0.9384	0.8007	0.4295	-0.022
Mof_C 	C 	0.0092	0.6776	0.2512	-0.002
Mof_C 	C 	0.3584	0.6935	0.6693	0.006
Mof_C 	C 	0.758	0.0092	0.3316	-0.002
Mof_C 	C 	0.3519	0.8354	0.8363	-0.111
Mof_C 	C 	0.4785	0.0842	0.9165	0.362
Mof_C 	C 	0.6247	0.4802	0.4225	-0.056
Mof_C 	C 	0.9636	0.2111	0.8349	-0.129
Mof_C 	C 	0.4786	0.7883	0.6947	-0.046
Mof_C 	C 	0.2723	0.6984	0.7701	-0.038
Mof_C 	C 	0.9536	0.1778	0.293	-0.025
Mof_C 	C 	0.7294	0.907	0.3938	-0.015
Mof_C 	C 	0.1489	0.9326	0.7855	0.175
Mof_C 	C 	0.196	0.9761	0.4861	0.165
Mof_C 	C 	0.5998	0.8529	0.9187	0.338
Mof_C 	C 	0.9851	0.4978	0.2491	-0.104
Mof_C 	C 	0.2316	0.6237	0.7321	0.349
Mof_C 	C 	0.8511	0.6366	0.7837	0.172
Mof_C 	C 	0.8916	0.4995	0.2679	0.35
Mof_C 	C 	0.9758	0.3065	0.6649	0.011
Mof_C 	C 	0.8529	0.0674	0.2163	0.176
Mof_C 	C 	0.1646	0.6481	0.1637	-0.111
Mof_C 	C 	0.2124	0.9667	0.8385	-0.132
Mof_C 	C 	0.9283	0.5022	0.2299	-0.04
Mof_C 	C 	0.7513	0.5022	0.4873	-0.108
Mof_C 	C 	0.2752	0.5604	0.3624	0.02
Mof_C 	C 	0.0936	0.7839	0.3053	-0.046
Mof_C 	C 	0.603	0.306	0.295	-0.028
Mof_C 	C 	0.0009	0.1646	0.5165	-0.106
Mof_C 	C 	0.4868	0.093	0.8224	-0.017
Mof_C 	C 	0.8848	0.6606	0.707	-0.027
Mof_C 	C 	0.106	0.8741	0.4005	-0.006
Mof_C 	C 	0.6416	0.3109	0.3351	0.006
Mof_C 	C 	0.242	0.5736	0.2512	-0.015
Mof_C 	C 	0.51	0.0239	0.2199	0.164
Mof_C 	C 	0.3736	0.0538	0.3468	-0.145
Mof_C 	C 	0.844	0.5765	0.9067	0.332
Mof_C 	C 	0.7438	0.9713	0.1433	-0.01
Mof_C 	C 	-0	0.7401	0.7401	-0.159
Mof_C 	C 	0.5091	0.9314	0.2321	-0.015
Mof_C 	C 	0.2557	0.0318	0.8585	-0.022
Mof_C 	C 	0.2117	0.5214	0.3053	-0.046
Mof_C 	C 	0.4264	0.758	0.7488	-0.015
Mof_C 	C 	0.8529	0.9342	0.2531	0.336
Mof_C 	C 	0.0545	0.7528	0.7305	0.109
Mof_C 	C 	0.7353	0.2543	0.7446	-0.128
Mof_C 	C 	0.4955	0.9795	0.784	0.147
Mof_C 	C 	0.1733	0.3972	0.1415	-0.026
Mof_C 	C 	0.8925	0.2091	0.678	-0.041
Mof_O 	O 	0.5959	0.9155	0.4168	-0.413
Mof_O 	O 	0.1791	0.5959	0.6804	-0.413
Mof_O 	O 	0.505	0.9182	0.3222	-0.394
Mof_O 	O 	0.1032	0.3414	0.2374	-0.208
Mof_O 	O 	0.6537	0.9713	0.0698	-0.419
Mof_O 	O 	0.1342	0.896	0.2374	-0.209
Mof_O 	O 	0.5326	0.8696	0.0728	-0.403
Mof_O 	O 	0.1935	0.124	0.7577	-0.411
Mof_O 	O 	0.4358	0.1935	0.0695	-0.412
Mof_O 	O 	0.0412	0.1083	0.5837	-0.405
Mof_O 	O 	0.8968	0.1342	0.2382	-0.209
Mof_O 	O 	0.5983	0.8417	0.338	-0.402
Mof_O 	O 	0.4552	0.7994	0.9366	-0.42
Mof_O 	O 	0.9155	0.4987	0.3196	-0.413
Mof_O 	O 	0.5013	0.0845	0.6804	-0.413
Mof_O 	O 	0.6586	0.8968	0.7626	-0.208
Mof_O 	O 	0.7438	0.1706	0.2524	-0.21
Mof_O 	O 	0.5402	0.2032	0.0728	-0.403
Mof_O 	O 	0.5186	0.4552	0.6558	-0.42
Mof_O 	O 	0.0818	0.495	0.6778	-0.394
Mof_O 	O 	0.2603	0.5983	0.7566	-0.402
Mof_O 	O 	0.8128	0.876	0.231	-0.391
Mof_O 	O 	0.645	0.5818	0.769	-0.392
Mof_O 	O 	0.9588	0.5425	0.0671	-0.405
Mof_O 	O 	0.3663	0.4358	0.2423	-0.412
Mof_O 	O 	0.1706	0.9182	0.4268	-0.209
Mof_O 	O 	0.7397	0.4963	0.338	-0.402
Mof_O 	O 	0.963	0.8932	0.4144	-0.4
Mof_O 	O 	0.1583	0.4017	0.662	-0.402
Mof_O 	O 	0.1617	0.7365	0.2452	-0.212
Mof_O 	O 	0.124	0.3663	0.9305	-0.411
Mof_O 	O 	0.3463	0.4161	0.3176	-0.421
Mof_O 	O 	0.4754	0.8917	0.9329	-0.406
Mof_O 	O 	0.4814	0.1372	0.9366	-0.419
Mof_O 	O 	0.124	0.1872	0.769	-0.391
Mof_O 	O 	0.4674	0.5402	0.337	-0.403
Mof_O 	O 	0.8065	0.5642	0.9305	-0.412
Mof_O 	O 	0.0271	0.0932	0.6929	-0.389
Mof_O 	O 	0.5486	0.963	0.0698	-0.4
Mof_O 	O 	0.596	0.1828	0.6778	-0.394
Mof_O 	O 	0.4987	0.1791	0.5832	-0.413
Mof_O 	O 	0.2032	0.1304	0.663	-0.403
Mof_O 	O 	0.1872	0.4182	0.0632	-0.392
Mof_O 	O 	0.9068	0.9729	0.3071	-0.389
Mof_O 	O 	0.3342	0.0271	0.9339	-0.389
Mof_O 	O 	0.4914	0.7438	0.5732	-0.21
Mof_O 	O 	0.8383	0.0835	0.5748	-0.211
Mof_O 	O 	0.5002	0.8368	0.2424	-0.404
Mof_O 	O 	0.4913	0.9165	0.7548	-0.212
Mof_O 	O 	0.5087	0.2635	0.4252	-0.212
Mof_O 	O 	0.4598	0.5326	0.663	-0.403
Mof_O 	O 	0.0845	0.4041	0.5832	-0.413
Mof_O 	O 	0.8294	0.2562	0.7476	-0.21
Mof_O 	O 	0.7968	0.4598	0.9272	-0.403
Mof_O 	O 	0.5997	0.9068	0.9339	-0.39
Mof_O 	O 	0.4017	0.7397	0.2434	-0.402
Mof_O 	O 	0.495	0.8172	0.4132	-0.394
Mof_O 	O 	0.4514	0.5212	0.4144	-0.401
Mof_O 	O 	0.8172	0.404	0.3222	-0.394
Mof_O 	O 	0.9182	0.4914	0.7476	-0.21
Mof_O 	O 	0.4575	0.0412	0.9329	-0.405
Mof_O 	O 	0.0932	0.4003	0.0661	-0.39
Mof_O 	O 	0.0818	0.8294	0.5732	-0.208
Mof_O 	O 	0.9182	0.596	0.4132	-0.394
Mof_O 	O 	0.5212	0.1068	0.0698	-0.401
Mof_O 	O 	0.9165	0.1617	0.4252	-0.212
Mof_O 	O 	0.8628	0.5186	0.0634	-0.42
Mof_O 	O 	0.2635	0.8383	0.7548	-0.212
Mof_O 	O 	0.9015	0.5839	0.9302	-0.421
Mof_O 	O 	0.1828	0.505	0.5868	-0.394
Mof_O 	O 	0.7365	0.4913	0.5748	-0.212
Mof_O 	O 	0.2578	0.5002	0.6634	-0.404
Mof_O 	O 	0.5425	0.4754	0.5837	-0.406
Mof_O 	O 	0.5642	0.6337	0.7577	-0.412
Mof_O 	O 	0.7994	0.8628	0.3442	-0.42
Mof_O 	O 	0.5448	0.4814	0.3442	-0.42
Mof_O 	O 	0.5086	0.0818	0.2524	-0.209
Mof_O 	O 	0.8368	0.5944	0.3366	-0.404
Mof_O 	O 	0.8658	0.1032	0.7618	-0.209
Mof_O 	O 	0.8696	0.7968	0.337	-0.403
Mof_O 	O 	0.5944	0.2578	0.7576	-0.404
Mof_O 	O 	0.0835	0.5087	0.2452	-0.211
Mof_O 	O 	0.1372	0.2006	0.6558	-0.42
Mof_O 	O 	0.3414	0.104	0.2382	-0.208
Mof_O 	O 	0.4963	0.1583	0.7566	-0.402
Mof_O 	O 	0.1068	0.037	0.5856	-0.401
Mof_O 	O 	0.8417	0.5037	0.2434	-0.402
Mof_O 	O 	0.7422	0.4056	0.2424	-0.404
Mof_O 	O 	0.5818	0.8128	0.9368	-0.392
Mof_O 	O 	0.2006	0.5448	0.0634	-0.42
Mof_O 	O 	0.8209	0.5013	0.4168	-0.413
Mof_O 	O 	0.9729	0.6658	0.0661	-0.388
Mof_O 	O 	0.0287	0.3463	0.9302	-0.42
Mof_O 	O 	0.4788	0.5486	0.5856	-0.401
Mof_O 	O 	0.4041	0.8209	0.3196	-0.413
Mof_O 	O 	0.876	0.8065	0.2423	-0.411
Mof_O 	O 	0.9713	0.9015	0.3176	-0.419
Mof_O 	O 	0.104	0.8658	0.7626	-0.209
Mof_O 	O 	0.4003	0.3342	0.3071	-0.39
Mof_O 	O 	0.4161	0.0985	0.0698	-0.421
Mof_O 	O 	0.5246	0.4575	0.4163	-0.406
Mof_O 	O 	0.404	0.0818	0.5868	-0.395
Mof_O 	O 	0.0985	0.0287	0.6824	-0.42
Mof_O 	O 	0.355	0.124	0.9368	-0.391
Mof_O 	O 	0.037	0.4514	0.9302	-0.4
Mof_O 	O 	0.8917	0.9588	0.4163	-0.405
Mof_O 	O 	0.1083	0.5246	0.0671	-0.406
Mof_O 	O 	0.8932	0.4788	0.9302	-0.401
Mof_O 	O 	0.4056	0.1632	0.6634	-0.404
Mof_O 	O 	0.4998	0.7422	0.3366	-0.404
Mof_O 	O 	0.1632	0.4998	0.7576	-0.404
Mof_O 	O 	0.896	0.6586	0.7618	-0.208
Mof_O 	O 	0.2562	0.5086	0.4268	-0.21
Mof_O 	O 	0.4182	0.355	0.231	-0.392
Mof_O 	O 	0.5839	0.6537	0.6824	-0.421
Mof_O 	O 	0.1304	0.4674	0.9272	-0.403
Mof_O 	O 	0.6658	0.5997	0.6929	-0.39
Mof_O 	O 	0.876	0.645	0.0632	-0.39
Mof_O 	O 	0.6337	0.876	0.0695	-0.411
Mof_O 	O 	0.5037	0.2603	0.662	-0.402
_end
