data_functionalizedCrystal
_audit_creation_method	'EQeq! by Chris Wilmer'
_symmetry_space_group_name_H-M	'P1'
_symmetry_Int_Tables_number	1
_symmetry_cell_setting	triclinic
loop_
_symmetry_equiv_pos_as_xyz
  x,y,z
_cell_length_a	15.0927
_cell_length_b	15.0927
_cell_length_c	19.2519
_cell_angle_alpha	90
_cell_angle_beta	90
_cell_angle_gamma	90
loop_
_atom_site_label
_atom_site_type_symbol
_atom_site_fract_x
_atom_site_fract_y
_atom_site_fract_z
_atom_site_charge
Mof_O 	O 	0.05366	0.87649	0.05769	-0.334
Mof_C 	C 	0.0897	0.0084	0.2095	-0.007
Mof_C 	C 	0.1699	0.7339	0.93761	0.029
Mof_H 	H 	0.147	0.7549	0.8953	0.046
Mof_C 	C 	0.0399	0.0821	0.2078	0.136
Mof_C 	C 	0.9466	0.0766	0.2107	-0.008
Mof_O 	O 	0.55366	0.37649	0.55769	-0.368
Mof_C 	C 	0.5897	0.5084	0.7095	-0.004
Mof_C 	C 	0.6699	0.2339	0.43761	-0.013
Mof_H 	H 	0.647	0.2549	0.3953	0.052
Mof_C 	C 	0.5399	0.5821	0.7078	0.008
Mof_C 	C 	0.4466	0.5766	0.7107	0.025
Mof_O 	O 	0.94634	0.12351	0.05769	-0.325
Mof_C 	C 	0.9103	0.9916	0.2095	-0.004
Mof_C 	C 	0.8301	0.2661	0.93761	0.024
Mof_H 	H 	0.853	0.2451	0.8953	0.052
Mof_C 	C 	0.9601	0.9179	0.2078	-0.114
Mof_C 	C 	0.0534	0.9234	0.2107	0.104
Mof_O 	O 	0.44634	0.62351	0.55769	-0.368
Mof_C 	C 	0.4103	0.4916	0.7095	-0.007
Mof_C 	C 	0.3301	0.7661	0.43761	-0.009
Mof_H 	H 	0.353	0.7451	0.3953	0.053
Mof_C 	C 	0.4601	0.4179	0.7078	0.005
Mof_C 	C 	0.5534	0.4234	0.7107	0.026
Mof_O 	O 	0.12351	0.05366	0.05769	-0.361
Mof_C 	C 	0.9916	0.0897	0.2095	0.066
Mof_C 	C 	0.2661	0.1699	0.93761	0.026
Mof_H 	H 	0.2451	0.147	0.8953	0.042
Mof_C 	C 	0.9179	0.0399	0.2078	-0.062
Mof_C 	C 	0.9234	0.9466	0.2107	0.248
Mof_O 	O 	0.62351	0.55366	0.55769	-0.367
Mof_C 	C 	0.4916	0.5897	0.7095	-0.005
Mof_C 	C 	0.7661	0.6699	0.43761	-0.006
Mof_H 	H 	0.7451	0.647	0.3953	0.055
Mof_C 	C 	0.4179	0.5399	0.7078	0.006
Mof_C 	C 	0.4234	0.4466	0.7107	0.025
Mof_O 	O 	0.87649	0.94634	0.05769	-0.304
Mof_C 	C 	0.0084	0.9103	0.2095	-0.084
Mof_C 	C 	0.7339	0.8301	0.93761	0.027
Mof_H 	H 	0.7549	0.853	0.8953	0.054
Mof_C 	C 	0.0821	0.9601	0.2078	0.072
Mof_C 	C 	0.0766	0.0534	0.2107	-0.175
Mof_O 	O 	0.37649	0.44634	0.55769	-0.371
Mof_C 	C 	0.5084	0.4103	0.7095	-0.008
Mof_C 	C 	0.2339	0.3301	0.43761	-0.017
Mof_H 	H 	0.2549	0.353	0.3953	0.05
Mof_C 	C 	0.5821	0.4601	0.7078	0.007
Mof_C 	C 	0.5766	0.5534	0.7107	0.026
Mof_O 	O 	0.94634	0.87649	0.44231	-0.313
Mof_C 	C 	0.9103	0.0084	0.2905	-0.084
Mof_C 	C 	0.8301	0.7339	0.56239	-0.02
Mof_H 	H 	0.853	0.7549	0.6047	0.063
Mof_C 	C 	0.9601	0.0821	0.2922	0.072
Mof_C 	C 	0.0534	0.0766	0.2893	-0.175
Mof_O 	O 	0.44634	0.37649	0.94231	-0.326
Mof_C 	C 	0.4103	0.5084	0.7905	-0.007
Mof_C 	C 	0.3301	0.2339	0.06239	-0.015
Mof_H 	H 	0.353	0.2549	0.1047	0.048
Mof_C 	C 	0.4601	0.5821	0.7922	0.007
Mof_C 	C 	0.5534	0.5766	0.7893	0.026
Mof_O 	O 	0.05366	0.12351	0.44231	-0.37
Mof_C 	C 	0.0897	0.9916	0.2905	0.066
Mof_C 	C 	0.1699	0.2661	0.56239	-0.02
Mof_H 	H 	0.147	0.2451	0.6047	0.05
Mof_C 	C 	0.0399	0.9179	0.2922	-0.062
Mof_C 	C 	0.9466	0.9234	0.2893	0.249
Mof_O 	O 	0.55366	0.62351	0.94231	-0.322
Mof_C 	C 	0.5897	0.4916	0.7905	-0.005
Mof_C 	C 	0.6699	0.7661	0.06239	-0.003
Mof_H 	H 	0.647	0.7451	0.1047	0.053
Mof_C 	C 	0.5399	0.4179	0.7922	0.006
Mof_C 	C 	0.4466	0.4234	0.7893	0.026
Mof_O 	O 	0.87649	0.05366	0.44231	-0.343
Mof_C 	C 	0.0084	0.0897	0.2905	-0.008
Mof_C 	C 	0.7339	0.1699	0.56239	-0.019
Mof_H 	H 	0.7549	0.147	0.6047	0.054
Mof_C 	C 	0.0821	0.0399	0.2922	0.135
Mof_C 	C 	0.0766	0.9466	0.2893	-0.008
Mof_O 	O 	0.37649	0.55366	0.94231	-0.324
Mof_C 	C 	0.5084	0.5897	0.7905	-0.005
Mof_C 	C 	0.2339	0.6699	0.06239	-0.011
Mof_H 	H 	0.2549	0.647	0.1047	0.05
Mof_C 	C 	0.5821	0.5399	0.7922	0.008
Mof_C 	C 	0.5766	0.4466	0.7893	0.026
Mof_O 	O 	0.12351	0.94634	0.44231	-0.334
Mof_C 	C 	0.9916	0.9103	0.2905	-0.004
Mof_C 	C 	0.2661	0.8301	0.56239	-0.022
Mof_H 	H 	0.2451	0.853	0.6047	0.061
Mof_C 	C 	0.9179	0.9601	0.2922	-0.114
Mof_C 	C 	0.9234	0.0534	0.2893	0.104
Mof_O 	O 	0.62351	0.44634	0.94231	-0.323
Mof_C 	C 	0.4916	0.4103	0.7905	-0.007
Mof_C 	C 	0.7661	0.3301	0.06239	-0.006
Mof_H 	H 	0.7451	0.353	0.1047	0.051
Mof_C 	C 	0.4179	0.4601	0.7922	0.005
Mof_C 	C 	0.4234	0.5534	0.7893	0.026
Mof_O 	O 	0.94634	0.12351	0.94231	-0.29
Mof_C 	C 	0.9103	0.9916	0.7905	-0.002
Mof_C 	C 	0.8301	0.2661	0.06239	-0.02
Mof_H 	H 	0.853	0.2451	0.1047	0.057
Mof_C 	C 	0.9601	0.9179	0.7922	-0.114
Mof_C 	C 	0.0534	0.9234	0.7893	0.105
Mof_O 	O 	0.44634	0.62351	0.44231	-0.369
Mof_C 	C 	0.4103	0.4916	0.2905	-0.008
Mof_C 	C 	0.3301	0.7661	0.56239	-0.008
Mof_H 	H 	0.353	0.7451	0.6047	0.055
Mof_C 	C 	0.4601	0.4179	0.2922	0.005
Mof_C 	C 	0.5534	0.4234	0.2893	0.025
Mof_O 	O 	0.05366	0.87649	0.94231	-0.299
Mof_C 	C 	0.0897	0.0084	0.7905	-0.007
Mof_C 	C 	0.1699	0.7339	0.06239	-0.016
Mof_H 	H 	0.147	0.7549	0.1047	0.051
Mof_C 	C 	0.0399	0.0821	0.7922	0.135
Mof_C 	C 	0.9466	0.0766	0.7893	-0.008
Mof_O 	O 	0.55366	0.37649	0.44231	-0.37
Mof_C 	C 	0.5897	0.5084	0.2905	-0.006
Mof_C 	C 	0.6699	0.2339	0.56239	-0.013
Mof_H 	H 	0.647	0.2549	0.6047	0.053
Mof_C 	C 	0.5399	0.5821	0.2922	0.007
Mof_C 	C 	0.4466	0.5766	0.2893	0.025
Mof_O 	O 	0.87649	0.94634	0.94231	-0.269
Mof_C 	C 	0.0084	0.9103	0.7905	-0.082
Mof_C 	C 	0.7339	0.8301	0.06239	-0.018
Mof_H 	H 	0.7549	0.853	0.1047	0.06
Mof_C 	C 	0.0821	0.9601	0.7922	0.072
Mof_C 	C 	0.0766	0.0534	0.7893	-0.175
Mof_O 	O 	0.37649	0.44634	0.44231	-0.371
Mof_C 	C 	0.5084	0.4103	0.2905	-0.008
Mof_C 	C 	0.2339	0.3301	0.56239	-0.017
Mof_H 	H 	0.2549	0.353	0.6047	0.052
Mof_C 	C 	0.5821	0.4601	0.2922	0.007
Mof_C 	C 	0.5766	0.5534	0.2893	0.026
Mof_O 	O 	0.12351	0.05366	0.94231	-0.325
Mof_C 	C 	0.9916	0.0897	0.7905	0.068
Mof_C 	C 	0.2661	0.1699	0.06239	-0.018
Mof_H 	H 	0.2451	0.147	0.1047	0.047
Mof_C 	C 	0.9179	0.0399	0.7922	-0.062
Mof_C 	C 	0.9234	0.9466	0.7893	0.249
Mof_O 	O 	0.62351	0.55366	0.44231	-0.367
Mof_C 	C 	0.4916	0.5897	0.2905	-0.006
Mof_C 	C 	0.7661	0.6699	0.56239	-0.005
Mof_H 	H 	0.7451	0.647	0.6047	0.056
Mof_C 	C 	0.4179	0.5399	0.2922	0.005
Mof_C 	C 	0.4234	0.4466	0.2893	0.025
Mof_O 	O 	0.05366	0.12351	0.55769	-0.369
Mof_C 	C 	0.0897	0.9916	0.7095	0.067
Mof_C 	C 	0.1699	0.2661	0.43761	-0.021
Mof_H 	H 	0.147	0.2451	0.3953	0.049
Mof_C 	C 	0.0399	0.9179	0.7078	-0.062
Mof_C 	C 	0.9466	0.9234	0.7107	0.249
Mof_O 	O 	0.55366	0.62351	0.05769	-0.358
Mof_C 	C 	0.5897	0.4916	0.2095	-0.006
Mof_C 	C 	0.6699	0.7661	0.93761	0.042
Mof_H 	H 	0.647	0.7451	0.8953	0.047
Mof_C 	C 	0.5399	0.4179	0.2078	0.005
Mof_C 	C 	0.4466	0.4234	0.2107	0.025
Mof_O 	O 	0.94634	0.87649	0.55769	-0.312
Mof_C 	C 	0.9103	0.0084	0.7095	-0.083
Mof_C 	C 	0.8301	0.7339	0.43761	-0.02
Mof_H 	H 	0.853	0.7549	0.3953	0.062
Mof_C 	C 	0.9601	0.0821	0.7078	0.073
Mof_C 	C 	0.0534	0.0766	0.7107	-0.176
Mof_O 	O 	0.44634	0.37649	0.05769	-0.362
Mof_C 	C 	0.4103	0.5084	0.2095	-0.008
Mof_C 	C 	0.3301	0.2339	0.93761	0.03
Mof_H 	H 	0.353	0.2549	0.8953	0.043
Mof_C 	C 	0.4601	0.5821	0.2078	0.007
Mof_C 	C 	0.5534	0.5766	0.2107	0.025
Mof_O 	O 	0.12351	0.94634	0.55769	-0.333
Mof_C 	C 	0.9916	0.9103	0.7095	-0.003
Mof_C 	C 	0.2661	0.8301	0.43761	-0.023
Mof_H 	H 	0.2451	0.853	0.3953	0.059
Mof_C 	C 	0.9179	0.9601	0.7078	-0.114
Mof_C 	C 	0.9234	0.0534	0.7107	0.104
Mof_O 	O 	0.62351	0.44634	0.05769	-0.36
Mof_C 	C 	0.4916	0.4103	0.2095	-0.008
Mof_C 	C 	0.7661	0.3301	0.93761	0.039
Mof_H 	H 	0.7451	0.353	0.8953	0.046
Mof_C 	C 	0.4179	0.4601	0.2078	0.005
Mof_C 	C 	0.4234	0.5534	0.2107	0.025
Mof_O 	O 	0.87649	0.05366	0.55769	-0.343
Mof_C 	C 	0.0084	0.0897	0.7095	-0.007
Mof_C 	C 	0.7339	0.1699	0.43761	-0.019
Mof_H 	H 	0.7549	0.147	0.3953	0.053
Mof_C 	C 	0.0821	0.0399	0.7078	0.135
Mof_C 	C 	0.0766	0.9466	0.7107	-0.009
Mof_O 	O 	0.37649	0.55366	0.05769	-0.361
Mof_C 	C 	0.5084	0.5897	0.2095	-0.006
Mof_C 	C 	0.2339	0.6699	0.93761	0.034
Mof_H 	H 	0.2549	0.647	0.8953	0.044
Mof_C 	C 	0.5821	0.5399	0.2078	0.007
Mof_C 	C 	0.5766	0.4466	0.2107	0.025
Mof_Fe	Fe	1.06829e-33	0	0.07292	0.652
Mof_N 	N 	3.75337e-33	-2.87815e-33	0.183	-0.214
Mof_Fe	Fe	0.5	0.5	0.57292	0.794
Mof_N 	N 	0.5	0.5	0.683	-0.164
Mof_Fe	Fe	-3.71372e-33	-5.75629e-33	0.42708	0.677
Mof_N 	N 	-1.36205e-33	0	0.317	-0.216
Mof_Fe	Fe	0.5	0.5	0.92708	0.806
Mof_N 	N 	0.5	0.5	0.817	-0.166
Mof_Fe	Fe	4.4339e-33	0	0.92708	0.689
Mof_N 	N 	3.90742e-33	-1.15126e-32	0.817	-0.219
Mof_Fe	Fe	0.5	0.5	0.42708	0.793
Mof_N 	N 	0.5	0.5	0.317	-0.163
Mof_Fe	Fe	2.74007e-33	0	0.57292	0.677
Mof_N 	N 	3.26655e-33	0	0.683	-0.217
Mof_Fe	Fe	0.5	0.5	0.07292	0.766
Mof_N 	N 	0.5	0.5	0.183	-0.162
Mof_C 	C 	0.0764	0.8462	-0	0.304
Mof_C 	C 	0.1384	0.7682	-0	-0.109
Mof_C 	C 	0.5764	0.3462	0.5	0.368
Mof_C 	C 	0.6384	0.2682	0.5	-0.074
Mof_C 	C 	0.9236	0.1538	-0	0.301
Mof_C 	C 	0.8616	0.2318	-0	-0.101
Mof_C 	C 	0.4236	0.6538	0.5	0.369
Mof_C 	C 	0.3616	0.7318	0.5	-0.075
Mof_C 	C 	0.1538	0.0764	-0	0.305
Mof_C 	C 	0.2318	0.1384	-0	-0.117
Mof_C 	C 	0.6538	0.5764	0.5	0.37
Mof_C 	C 	0.7318	0.6384	0.5	-0.073
Mof_C 	C 	0.8462	0.9236	-0	0.301
Mof_C 	C 	0.7682	0.8616	-0	-0.095
Mof_C 	C 	0.3462	0.4236	0.5	0.366
Mof_C 	C 	0.2682	0.3616	0.5	-0.076
Mof_C 	C 	0.9236	0.8462	0.5	0.351
Mof_C 	C 	0.8616	0.7682	0.5	-0.053
Mof_C 	C 	0.4236	0.3462	-0	0.315
Mof_C 	C 	0.3616	0.2682	-0	-0.118
Mof_C 	C 	0.0764	0.1538	0.5	0.354
Mof_C 	C 	0.1384	0.2318	0.5	-0.075
Mof_C 	C 	0.5764	0.6538	-0	0.319
Mof_C 	C 	0.6384	0.7318	-0	-0.115
Mof_C 	C 	0.8462	0.0764	0.5	0.354
Mof_C 	C 	0.7682	0.1384	0.5	-0.067
Mof_C 	C 	0.3462	0.5764	-0	0.316
Mof_C 	C 	0.2682	0.6384	-0	-0.117
Mof_C 	C 	0.1538	0.9236	0.5	0.35
Mof_C 	C 	0.2318	0.8616	0.5	-0.059
Mof_C 	C 	0.6538	0.4236	-0	0.317
Mof_C 	C 	0.7318	0.3616	-0	-0.117
_end
