# CIF file generated by openbabel 2.4.1, see http://openbabel.sf.net
data_I
_chemical_name_common 'image0'
_cell_length_a 21.441
_cell_length_b 21.441
_cell_length_c 9.655
_cell_angle_alpha 90
_cell_angle_beta 90
_cell_angle_gamma 90
_space_group_name_H-M_alt 'P 1'
_space_group_name_Hall 'P 1'
loop_
    _symmetry_equiv_pos_as_xyz
    x,y,z
loop_
    _atom_site_label
    _atom_site_type_symbol
    _atom_site_fract_x
    _atom_site_fract_y
    _atom_site_fract_z
    _atom_site_occupancy
    O1      O    0.06310   0.43100   0.08940   1.000
    C1      C    0.07280   0.40480   0.20390   1.000
    C2      C    0.15750   0.25260   0.10390   1.000
    C3      C    0.11180   0.30170   0.10110   1.000
    C4      C    0.11630   0.34940   0.20500   1.000
    C5      C    0.16160   0.34680   0.30530   1.000
    H1      H    0.16390   0.37740   0.37340   1.000
    C6      C    0.20460   0.29720   0.30410   1.000
    H2      H    0.23440   0.29500   0.37380   1.000
    C7      C    0.06400   0.29870   0.00440   1.000
    H3      H    0.03350   0.32960   0.00270   1.000
    C8      C    0.20400   0.25330   0.20630   1.000
    H4      H    0.23490   0.22280   0.20590   1.000
    C9      C    0.15530   0.20450   0.00310   1.000
    C10     C    0.06140   0.24970   0.90980   1.000
    H5      H    0.02840   0.24800   0.84750   1.000
    O2      O    0.10030   0.15960   0.81120   1.000
    H6      H    0.12880   0.13440   0.81980   1.000
    C11     C    0.10600   0.20390   0.90580   1.000
    O3      O    0.05168   0.42231   0.31800   1.000
    C12     C    0.06400   0.48670   0.78060   1.000
    H7      H    0.07790   0.44590   0.81090   1.000
    H8      H    0.09340   0.51750   0.81470   1.000
    C13     C    0.06210   0.48890   0.62160   1.000
    H9      H    0.08980   0.52170   0.58950   1.000
    H10     H    0.07760   0.44960   0.58550   1.000
    C14     C    0.03610   0.44640   0.62390   1.000
    H11     H    0.07860   0.44820   0.58970   1.000
    H12     H    0.01760   0.40770   0.59230   1.000
    C15     C    0.03660   0.44770   0.78370   1.000
    H13     H    0.01970   0.40890   0.81860   1.000
    H14     H    0.07930   0.45120   0.81600   1.000
    O4      O    0.93690   0.56900   0.08940   1.000
    C16     C    0.92720   0.59520   0.20390   1.000
    C17     C    0.84250   0.74740   0.10390   1.000
    C18     C    0.88820   0.69830   0.10110   1.000
    C19     C    0.88370   0.65060   0.20500   1.000
    C20     C    0.83840   0.65320   0.30530   1.000
    H15     H    0.83610   0.62260   0.37340   1.000
    C21     C    0.79540   0.70280   0.30410   1.000
    H16     H    0.76560   0.70500   0.37380   1.000
    C22     C    0.93600   0.70130   0.00440   1.000
    H17     H    0.96650   0.67040   0.00270   1.000
    C23     C    0.79600   0.74670   0.20630   1.000
    H18     H    0.76510   0.77720   0.20590   1.000
    C24     C    0.84470   0.79550   0.00310   1.000
    C25     C    0.93860   0.75030   0.90980   1.000
    H19     H    0.97160   0.75200   0.84750   1.000
    O5      O    0.89970   0.84040   0.81120   1.000
    H20     H    0.87120   0.86560   0.81980   1.000
    C26     C    0.89400   0.79610   0.90580   1.000
    O6      O    0.94832   0.57769   0.31800   1.000
    C27     C    0.93600   0.51330   0.78060   1.000
    H21     H    0.92210   0.55410   0.81090   1.000
    H22     H    0.90660   0.48250   0.81470   1.000
    C28     C    0.93790   0.51110   0.62160   1.000
    H23     H    0.91020   0.47830   0.58950   1.000
    H24     H    0.92240   0.55040   0.58550   1.000
    C29     C    0.96390   0.55360   0.62390   1.000
    H25     H    0.92140   0.55180   0.58970   1.000
    H26     H    0.98240   0.59230   0.59230   1.000
    C30     C    0.96340   0.55230   0.78370   1.000
    H27     H    0.98030   0.59110   0.81860   1.000
    H28     H    0.92070   0.54880   0.81600   1.000
    O7      O    0.06900   0.56310   0.08940   1.000
    C31     C    0.09520   0.57280   0.20390   1.000
    C32     C    0.24740   0.65750   0.10390   1.000
    C33     C    0.19830   0.61180   0.10110   1.000
    C34     C    0.15060   0.61630   0.20500   1.000
    C35     C    0.15320   0.66160   0.30530   1.000
    H29     H    0.12260   0.66390   0.37340   1.000
    C36     C    0.20280   0.70460   0.30410   1.000
    H30     H    0.20500   0.73440   0.37380   1.000
    C37     C    0.20130   0.56400   0.00440   1.000
    H31     H    0.17040   0.53350   0.00270   1.000
    C38     C    0.24670   0.70400   0.20630   1.000
    H32     H    0.27720   0.73490   0.20590   1.000
    C39     C    0.29550   0.65530   0.00310   1.000
    C40     C    0.25030   0.56140   0.90980   1.000
    H33     H    0.25200   0.52840   0.84750   1.000
    O8      O    0.34040   0.60030   0.81120   1.000
    H34     H    0.36560   0.62880   0.81980   1.000
    C41     C    0.29610   0.60600   0.90580   1.000
    O9      O    0.07769   0.55168   0.31800   1.000
    C42     C    0.01330   0.56400   0.78060   1.000
    H35     H    0.05410   0.57790   0.81090   1.000
    H36     H    0.98250   0.59340   0.81470   1.000
    C43     C    0.01110   0.56210   0.62160   1.000
    H37     H    0.97830   0.58980   0.58950   1.000
    H38     H    0.05040   0.57760   0.58550   1.000
    C44     C    0.05360   0.53610   0.62390   1.000
    H39     H    0.05180   0.57860   0.58970   1.000
    H40     H    0.09230   0.51760   0.59230   1.000
    C45     C    0.05230   0.53660   0.78370   1.000
    H41     H    0.09110   0.51970   0.81860   1.000
    H42     H    0.04880   0.57930   0.81600   1.000
    O10     O    0.93100   0.43690   0.08940   1.000
    C46     C    0.90480   0.42720   0.20390   1.000
    C47     C    0.75260   0.34250   0.10390   1.000
    C48     C    0.80170   0.38820   0.10110   1.000
    C49     C    0.84940   0.38370   0.20500   1.000
    C50     C    0.84680   0.33840   0.30530   1.000
    H43     H    0.87740   0.33610   0.37340   1.000
    C51     C    0.79720   0.29540   0.30410   1.000
    H44     H    0.79500   0.26560   0.37380   1.000
    C52     C    0.79870   0.43600   0.00440   1.000
    H45     H    0.82960   0.46650   0.00270   1.000
    C53     C    0.75330   0.29600   0.20630   1.000
    H46     H    0.72280   0.26510   0.20590   1.000
    C54     C    0.70450   0.34470   0.00310   1.000
    C55     C    0.74970   0.43860   0.90980   1.000
    H47     H    0.74800   0.47160   0.84750   1.000
    O11     O    0.65960   0.39970   0.81120   1.000
    H48     H    0.63440   0.37120   0.81980   1.000
    C56     C    0.70390   0.39400   0.90580   1.000
    O12     O    0.92231   0.44832   0.31800   1.000
    C57     C    0.98670   0.43600   0.78060   1.000
    H49     H    0.94590   0.42210   0.81090   1.000
    H50     H    0.01750   0.40660   0.81470   1.000
    C58     C    0.98890   0.43790   0.62160   1.000
    H51     H    0.02170   0.41020   0.58950   1.000
    H52     H    0.94960   0.42240   0.58550   1.000
    C59     C    0.94640   0.46390   0.62390   1.000
    H53     H    0.94820   0.42140   0.58970   1.000
    H54     H    0.90770   0.48240   0.59230   1.000
    C60     C    0.94770   0.46340   0.78370   1.000
    H55     H    0.90890   0.48030   0.81860   1.000
    H56     H    0.95120   0.42070   0.81600   1.000
    O13     O    0.43690   0.93100   0.91060   1.000
    C61     C    0.42720   0.90480   0.79610   1.000
    C62     C    0.34250   0.75260   0.89610   1.000
    C63     C    0.38820   0.80170   0.89890   1.000
    C64     C    0.38370   0.84940   0.79500   1.000
    C65     C    0.33840   0.84680   0.69470   1.000
    H57     H    0.33610   0.87740   0.62660   1.000
    C66     C    0.29540   0.79720   0.69590   1.000
    H58     H    0.26560   0.79500   0.62620   1.000
    C67     C    0.43600   0.79870   0.99560   1.000
    H59     H    0.46650   0.82960   0.99730   1.000
    C68     C    0.29600   0.75330   0.79370   1.000
    H60     H    0.26510   0.72280   0.79410   1.000
    C69     C    0.34470   0.70450   0.99690   1.000
    C70     C    0.43860   0.74970   0.09020   1.000
    H61     H    0.47160   0.74800   0.15250   1.000
    O14     O    0.39970   0.65960   0.18880   1.000
    H62     H    0.37120   0.63440   0.18020   1.000
    C71     C    0.39400   0.70390   0.09420   1.000
    O15     O    0.44832   0.92231   0.68200   1.000
    C72     C    0.43600   0.98670   0.21940   1.000
    H63     H    0.42210   0.94590   0.18910   1.000
    H64     H    0.40660   0.01750   0.18530   1.000
    C73     C    0.43790   0.98890   0.37840   1.000
    H65     H    0.41020   0.02170   0.41050   1.000
    H66     H    0.42240   0.94960   0.41450   1.000
    C74     C    0.46390   0.94640   0.37610   1.000
    H67     H    0.42140   0.94820   0.41030   1.000
    H68     H    0.48240   0.90770   0.40770   1.000
    C75     C    0.46340   0.94770   0.21630   1.000
    H69     H    0.48030   0.90890   0.18140   1.000
    H70     H    0.42070   0.95120   0.18400   1.000
    O16     O    0.56310   0.06900   0.91060   1.000
    C76     C    0.57280   0.09520   0.79610   1.000
    C77     C    0.65750   0.24740   0.89610   1.000
    C78     C    0.61180   0.19830   0.89890   1.000
    C79     C    0.61630   0.15060   0.79500   1.000
    C80     C    0.66160   0.15320   0.69470   1.000
    H71     H    0.66390   0.12260   0.62660   1.000
    C81     C    0.70460   0.20280   0.69590   1.000
    H72     H    0.73440   0.20500   0.62620   1.000
    C82     C    0.56400   0.20130   0.99560   1.000
    H73     H    0.53350   0.17040   0.99730   1.000
    C83     C    0.70400   0.24670   0.79370   1.000
    H74     H    0.73490   0.27720   0.79410   1.000
    C84     C    0.65530   0.29550   0.99690   1.000
    C85     C    0.56140   0.25030   0.09020   1.000
    H75     H    0.52840   0.25200   0.15250   1.000
    O17     O    0.60030   0.34040   0.18880   1.000
    H76     H    0.62880   0.36560   0.18020   1.000
    C86     C    0.60600   0.29610   0.09420   1.000
    O18     O    0.55168   0.07769   0.68200   1.000
    C87     C    0.56400   0.01330   0.21940   1.000
    H77     H    0.57790   0.05410   0.18910   1.000
    H78     H    0.59340   0.98250   0.18530   1.000
    C88     C    0.56210   0.01110   0.37840   1.000
    H79     H    0.58980   0.97830   0.41050   1.000
    H80     H    0.57760   0.05040   0.41450   1.000
    C89     C    0.53610   0.05360   0.37610   1.000
    H81     H    0.57860   0.05180   0.41030   1.000
    H82     H    0.51760   0.09230   0.40770   1.000
    C90     C    0.53660   0.05230   0.21630   1.000
    H83     H    0.51970   0.09110   0.18140   1.000
    H84     H    0.57930   0.04880   0.18400   1.000
    O19     O    0.43100   0.06310   0.91060   1.000
    C91     C    0.40480   0.07280   0.79610   1.000
    C92     C    0.25260   0.15750   0.89610   1.000
    C93     C    0.30170   0.11180   0.89890   1.000
    C94     C    0.34940   0.11630   0.79500   1.000
    C95     C    0.34680   0.16160   0.69470   1.000
    H85     H    0.37740   0.16390   0.62660   1.000
    C96     C    0.29720   0.20460   0.69590   1.000
    H86     H    0.29500   0.23440   0.62620   1.000
    C97     C    0.29870   0.06400   0.99560   1.000
    H87     H    0.32960   0.03350   0.99730   1.000
    C98     C    0.25330   0.20400   0.79370   1.000
    H88     H    0.22280   0.23490   0.79410   1.000
    C99     C    0.20450   0.15530   0.99690   1.000
    C100    C    0.24970   0.06140   0.09020   1.000
    H89     H    0.24800   0.02840   0.15250   1.000
    O20     O    0.15960   0.10030   0.18880   1.000
    H90     H    0.13440   0.12880   0.18020   1.000
    C101    C    0.20390   0.10600   0.09420   1.000
    O21     O    0.42231   0.05168   0.68200   1.000
    C102    C    0.48670   0.06400   0.21940   1.000
    H91     H    0.44590   0.07790   0.18910   1.000
    H92     H    0.51750   0.09340   0.18530   1.000
    C103    C    0.48890   0.06210   0.37840   1.000
    H93     H    0.52170   0.08980   0.41050   1.000
    H94     H    0.44960   0.07760   0.41450   1.000
    C104    C    0.44640   0.03610   0.37610   1.000
    H95     H    0.44820   0.07860   0.41030   1.000
    H96     H    0.40770   0.01760   0.40770   1.000
    C105    C    0.44770   0.03660   0.21630   1.000
    H97     H    0.40890   0.01970   0.18140   1.000
    H98     H    0.45120   0.07930   0.18400   1.000
    O22     O    0.56900   0.93690   0.91060   1.000
    C106    C    0.59520   0.92720   0.79610   1.000
    C107    C    0.74740   0.84250   0.89610   1.000
    C108    C    0.69830   0.88820   0.89890   1.000
    C109    C    0.65060   0.88370   0.79500   1.000
    C110    C    0.65320   0.83840   0.69470   1.000
    H99     H    0.62260   0.83610   0.62660   1.000
    C111    C    0.70280   0.79540   0.69590   1.000
    H100    H    0.70500   0.76560   0.62620   1.000
    C112    C    0.70130   0.93600   0.99560   1.000
    H101    H    0.67040   0.96650   0.99730   1.000
    C113    C    0.74670   0.79600   0.79370   1.000
    H102    H    0.77720   0.76510   0.79410   1.000
    C114    C    0.79550   0.84470   0.99690   1.000
    C115    C    0.75030   0.93860   0.09020   1.000
    H103    H    0.75200   0.97160   0.15250   1.000
    O23     O    0.84040   0.89970   0.18880   1.000
    H104    H    0.86560   0.87120   0.18020   1.000
    C116    C    0.79610   0.89400   0.09420   1.000
    O24     O    0.57769   0.94832   0.68200   1.000
    C117    C    0.51330   0.93600   0.21940   1.000
    H105    H    0.55410   0.92210   0.18910   1.000
    H106    H    0.48250   0.90660   0.18530   1.000
    C118    C    0.51110   0.93790   0.37840   1.000
    H107    H    0.47830   0.91020   0.41050   1.000
    H108    H    0.55040   0.92240   0.41450   1.000
    C119    C    0.55360   0.96390   0.37610   1.000
    H109    H    0.55180   0.92140   0.41030   1.000
    H110    H    0.59230   0.98240   0.40770   1.000
    C120    C    0.55230   0.96340   0.21630   1.000
    H111    H    0.59110   0.98030   0.18140   1.000
    H112    H    0.54880   0.92070   0.18400   1.000
    Zn1     Zn   0.00000   0.50000   0.35545   1.000
    Zn2     Zn   0.00000   0.50000   0.05132   1.000
    N1      N    0.00000   0.50000   0.56680   1.000
    N2      N    0.00000   0.50000   0.83870   1.000
    Zn3     Zn   0.50000   0.00000   0.64455   1.000
    Zn4     Zn   0.50000   0.00000   0.94868   1.000
    N3      N    0.50000   0.00000   0.43320   1.000
    N4      N    0.50000   0.00000   0.16130   1.000
