data_functionalizedCrystal
_audit_creation_method	'EQeq! by Chris Wilmer'
_symmetry_space_group_name_H-M	'P1'
_symmetry_Int_Tables_number	1
_symmetry_cell_setting	triclinic
loop_
_symmetry_equiv_pos_as_xyz
  x,y,z
_cell_length_a	13.1406
_cell_length_b	13.1406
_cell_length_c	13.6199
_cell_angle_alpha	90
_cell_angle_beta	90
_cell_angle_gamma	120
loop_
_atom_site_label
_atom_site_type_symbol
_atom_site_fract_x
_atom_site_fract_y
_atom_site_fract_z
_atom_site_charge
Mof_C 	C 	0.137	0.3481	0.5859	-0.431
Mof_C 	C 	0.0259	0.2564	0.6411	-0.41
Mof_H 	H 	0.9658	0.2774	0.6359	0.153
Mof_H 	H 	0.9982	0.1802	0.6127	0.158
Mof_H 	H 	0.0445	0.2548	0.7091	0.124
Mof_N 	N 	0.2385	0.3532	0.5862	0.416
Mof_H 	H 	0.6477	0.1744	0.2818	0.32
Mof_H 	H 	0.5854	0.1744	0.1836	0.14
Mof_N 	N 	0.1393	0.4411	0.5322	-0.115
Mof_C 	C 	0.6519	0.7889	0.5859	-0.43
Mof_C 	C 	0.7436	0.7695	0.6411	-0.372
Mof_H 	H 	0.7226	0.6884	0.6359	0.14
Mof_H 	H 	0.8198	0.818	0.6127	0.146
Mof_H 	H 	0.7452	0.7897	0.7091	0.114
Mof_N 	N 	0.6468	0.8853	0.5862	0.41
Mof_H 	H 	0.8256	0.4733	0.2818	0.333
Mof_H 	H 	0.8256	0.411	0.1836	0.146
Mof_N 	N 	0.5589	0.6982	0.5322	-0.114
Mof_C 	C 	0.2111	0.863	0.5859	-0.428
Mof_C 	C 	0.2305	0.9741	0.6411	-0.318
Mof_H 	H 	0.3116	0.0342	0.6359	0.119
Mof_H 	H 	0.182	0.0018	0.6127	0.123
Mof_H 	H 	0.2103	0.9555	0.7091	0.103
Mof_N 	N 	0.1147	0.7615	0.5862	0.421
Mof_H 	H 	0.5267	0.3523	0.2818	0.324
Mof_H 	H 	0.589	0.4146	0.1836	0.142
Mof_N 	N 	0.3018	0.8607	0.5322	-0.112
Mof_C 	C 	0.863	0.6519	0.0859	-0.424
Mof_C 	C 	0.9741	0.7436	0.1411	-0.287
Mof_H 	H 	0.0342	0.7226	0.1359	0.105
Mof_H 	H 	0.0018	0.8198	0.1127	0.106
Mof_H 	H 	0.9555	0.7452	0.2091	0.091
Mof_N 	N 	0.7615	0.6468	0.0862	0.411
Mof_H 	H 	0.3523	0.8256	0.7818	0.337
Mof_H 	H 	0.4146	0.8256	0.6836	0.148
Mof_N 	N 	0.8607	0.5589	0.0322	-0.125
Mof_C 	C 	0.3481	0.2111	0.0859	-0.426
Mof_C 	C 	0.2564	0.2305	0.1411	-0.367
Mof_H 	H 	0.2774	0.3116	0.1359	0.135
Mof_H 	H 	0.1802	0.182	0.1127	0.137
Mof_H 	H 	0.2548	0.2103	0.2091	0.112
Mof_N 	N 	0.3532	0.1147	0.0862	0.411
Mof_H 	H 	0.1744	0.5267	0.7818	0.327
Mof_H 	H 	0.1744	0.589	0.6836	0.143
Mof_N 	N 	0.4411	0.3018	0.0322	-0.129
Mof_C 	C 	0.7889	0.137	0.0859	-0.428
Mof_C 	C 	0.7695	0.0259	0.1411	-0.381
Mof_H 	H 	0.6884	0.9658	0.1359	0.14
Mof_H 	H 	0.818	0.9982	0.1127	0.146
Mof_H 	H 	0.7897	0.0445	0.2091	0.113
Mof_N 	N 	0.8853	0.2385	0.0862	0.4
Mof_H 	H 	0.4733	0.6477	0.7818	0.329
Mof_H 	H 	0.411	0.5854	0.6836	0.144
Mof_N 	N 	0.6982	0.1393	0.0322	-0.128
Mof_C 	C 	0.3481	0.137	0.4141	-0.43
Mof_C 	C 	0.2564	0.0259	0.3589	-0.417
Mof_H 	H 	0.2774	0.9658	0.3641	0.157
Mof_H 	H 	0.1802	0.9982	0.3873	0.162
Mof_H 	H 	0.2548	0.0445	0.2909	0.127
Mof_N 	N 	0.3532	0.2385	0.4138	0.416
Mof_H 	H 	0.1744	0.6477	0.7182	0.325
Mof_H 	H 	0.1744	0.5854	0.8164	0.145
Mof_N 	N 	0.4411	0.1393	0.4678	-0.115
Mof_C 	C 	0.7889	0.6519	0.4141	-0.43
Mof_C 	C 	0.7695	0.7436	0.3589	-0.374
Mof_H 	H 	0.6884	0.7226	0.3641	0.14
Mof_H 	H 	0.818	0.8198	0.3873	0.146
Mof_H 	H 	0.7897	0.7452	0.2909	0.115
Mof_N 	N 	0.8853	0.6468	0.4138	0.411
Mof_H 	H 	0.4733	0.8256	0.7182	0.336
Mof_H 	H 	0.411	0.8256	0.8164	0.149
Mof_N 	N 	0.6982	0.5589	0.4678	-0.114
Mof_C 	C 	0.863	0.2111	0.4141	-0.428
Mof_C 	C 	0.9741	0.2305	0.3589	-0.323
Mof_H 	H 	0.0342	0.3116	0.3641	0.121
Mof_H 	H 	0.0018	0.182	0.3873	0.124
Mof_H 	H 	0.9555	0.2103	0.2909	0.106
Mof_N 	N 	0.7615	0.1147	0.4138	0.423
Mof_H 	H 	0.3523	0.5267	0.7182	0.328
Mof_H 	H 	0.4146	0.589	0.8164	0.146
Mof_N 	N 	0.8607	0.3018	0.4678	-0.112
Mof_C 	C 	0.6519	0.863	0.9141	-0.431
Mof_C 	C 	0.7436	0.9741	0.8589	-0.301
Mof_H 	H 	0.7226	0.0342	0.8641	0.117
Mof_H 	H 	0.8198	0.0018	0.8873	0.122
Mof_H 	H 	0.7452	0.9555	0.7909	0.096
Mof_N 	N 	0.6468	0.7615	0.9138	0.425
Mof_H 	H 	0.8256	0.3523	0.2182	0.333
Mof_H 	H 	0.8256	0.4146	0.3164	0.146
Mof_N 	N 	0.5589	0.8607	0.9678	-0.088
Mof_C 	C 	0.2111	0.3481	0.9141	-0.432
Mof_C 	C 	0.2305	0.2564	0.8589	-0.379
Mof_H 	H 	0.3116	0.2774	0.8641	0.147
Mof_H 	H 	0.182	0.1802	0.8873	0.153
Mof_H 	H 	0.2103	0.2548	0.7909	0.116
Mof_N 	N 	0.1147	0.3532	0.9138	0.424
Mof_H 	H 	0.5267	0.1744	0.2182	0.321
Mof_H 	H 	0.589	0.1744	0.3164	0.141
Mof_N 	N 	0.3018	0.4411	0.9678	-0.091
Mof_C 	C 	0.137	0.7889	0.9141	-0.434
Mof_C 	C 	0.0259	0.7695	0.8589	-0.382
Mof_H 	H 	0.9658	0.6884	0.8641	0.148
Mof_H 	H 	0.9982	0.818	0.8873	0.156
Mof_H 	H 	0.0445	0.7897	0.7909	0.115
Mof_N 	N 	0.2385	0.8853	0.9138	0.415
Mof_H 	H 	0.6477	0.4733	0.2182	0.323
Mof_H 	H 	0.5854	0.411	0.3164	0.142
Mof_N 	N 	0.1393	0.6982	0.9678	-0.088
Mof_C 	C 	0.863	0.6519	0.4141	-0.428
Mof_C 	C 	0.9741	0.7436	0.3589	-0.327
Mof_H 	H 	0.0342	0.7226	0.3641	0.122
Mof_H 	H 	0.0018	0.8198	0.3873	0.126
Mof_H 	H 	0.9555	0.7452	0.2909	0.107
Mof_N 	N 	0.7615	0.6468	0.4138	0.417
Mof_H 	H 	0.3523	0.8256	0.7182	0.336
Mof_H 	H 	0.4146	0.8256	0.8164	0.149
Mof_N 	N 	0.8607	0.5589	0.4678	-0.112
Mof_C 	C 	0.3481	0.2111	0.4141	-0.429
Mof_C 	C 	0.2564	0.2305	0.3589	-0.372
Mof_H 	H 	0.2774	0.3116	0.3641	0.14
Mof_H 	H 	0.1802	0.182	0.3873	0.144
Mof_H 	H 	0.2548	0.2103	0.2909	0.114
Mof_N 	N 	0.3532	0.1147	0.4138	0.422
Mof_H 	H 	0.1744	0.5267	0.7182	0.326
Mof_H 	H 	0.1744	0.589	0.8164	0.145
Mof_N 	N 	0.4411	0.3018	0.4678	-0.114
Mof_C 	C 	0.7889	0.137	0.4141	-0.431
Mof_C 	C 	0.7695	0.0259	0.3589	-0.415
Mof_H 	H 	0.6884	0.9658	0.3641	0.156
Mof_H 	H 	0.818	0.9982	0.3873	0.162
Mof_H 	H 	0.7897	0.0445	0.2909	0.127
Mof_N 	N 	0.8853	0.2385	0.4138	0.41
Mof_H 	H 	0.4733	0.6477	0.7182	0.328
Mof_H 	H 	0.411	0.5854	0.8164	0.146
Mof_N 	N 	0.6982	0.1393	0.4678	-0.115
Mof_C 	C 	0.137	0.3481	0.9141	-0.432
Mof_C 	C 	0.0259	0.2564	0.8589	-0.38
Mof_H 	H 	0.9658	0.2774	0.8641	0.148
Mof_H 	H 	0.9982	0.1802	0.8873	0.154
Mof_H 	H 	0.0445	0.2548	0.7909	0.113
Mof_N 	N 	0.2385	0.3532	0.9138	0.424
Mof_H 	H 	0.6477	0.1744	0.2182	0.32
Mof_H 	H 	0.5854	0.1744	0.3164	0.141
Mof_N 	N 	0.1393	0.4411	0.9678	-0.089
Mof_C 	C 	0.6519	0.7889	0.9141	-0.433
Mof_C 	C 	0.7436	0.7695	0.8589	-0.381
Mof_H 	H 	0.7226	0.6884	0.8641	0.147
Mof_H 	H 	0.8198	0.818	0.8873	0.155
Mof_H 	H 	0.7452	0.7897	0.7909	0.117
Mof_N 	N 	0.6468	0.8853	0.9138	0.414
Mof_H 	H 	0.8256	0.4733	0.2182	0.332
Mof_H 	H 	0.8256	0.411	0.3164	0.146
Mof_N 	N 	0.5589	0.6982	0.9678	-0.091
Mof_C 	C 	0.2111	0.863	0.9141	-0.431
Mof_C 	C 	0.2305	0.9741	0.8589	-0.301
Mof_H 	H 	0.3116	0.0342	0.8641	0.117
Mof_H 	H 	0.182	0.0018	0.8873	0.122
Mof_H 	H 	0.2103	0.9555	0.7909	0.096
Mof_N 	N 	0.1147	0.7615	0.9138	0.426
Mof_H 	H 	0.5267	0.3523	0.2182	0.324
Mof_H 	H 	0.589	0.4146	0.3164	0.142
Mof_N 	N 	0.3018	0.8607	0.9678	-0.086
Mof_C 	C 	0.6519	0.863	0.5859	-0.428
Mof_C 	C 	0.7436	0.9741	0.6411	-0.321
Mof_H 	H 	0.7226	0.0342	0.6359	0.12
Mof_H 	H 	0.8198	0.0018	0.6127	0.124
Mof_H 	H 	0.7452	0.9555	0.7091	0.104
Mof_N 	N 	0.6468	0.7615	0.5862	0.417
Mof_H 	H 	0.8256	0.3523	0.2818	0.333
Mof_H 	H 	0.8256	0.4146	0.1836	0.146
Mof_N 	N 	0.5589	0.8607	0.5322	-0.112
Mof_C 	C 	0.2111	0.3481	0.5859	-0.429
Mof_C 	C 	0.2305	0.2564	0.6411	-0.371
Mof_H 	H 	0.3116	0.2774	0.6359	0.139
Mof_H 	H 	0.182	0.1802	0.6127	0.144
Mof_H 	H 	0.2103	0.2548	0.7091	0.113
Mof_N 	N 	0.1147	0.3532	0.5862	0.421
Mof_H 	H 	0.5267	0.1744	0.2818	0.321
Mof_H 	H 	0.589	0.1744	0.1836	0.14
Mof_N 	N 	0.3018	0.4411	0.5322	-0.114
Mof_C 	C 	0.137	0.7889	0.5859	-0.431
Mof_C 	C 	0.0259	0.7695	0.6411	-0.408
Mof_H 	H 	0.9658	0.6884	0.6359	0.153
Mof_H 	H 	0.9982	0.818	0.6127	0.16
Mof_H 	H 	0.0445	0.7897	0.7091	0.125
Mof_N 	N 	0.2385	0.8853	0.5862	0.409
Mof_H 	H 	0.6477	0.4733	0.2818	0.324
Mof_H 	H 	0.5854	0.411	0.1836	0.142
Mof_N 	N 	0.1393	0.6982	0.5322	-0.115
Mof_C 	C 	0.3481	0.137	0.0859	-0.426
Mof_C 	C 	0.2564	0.0259	0.1411	-0.383
Mof_H 	H 	0.2774	0.9658	0.1359	0.142
Mof_H 	H 	0.1802	0.9982	0.1127	0.145
Mof_H 	H 	0.2548	0.0445	0.2091	0.114
Mof_N 	N 	0.3532	0.2385	0.0862	0.409
Mof_H 	H 	0.1744	0.6477	0.7818	0.327
Mof_H 	H 	0.1744	0.5854	0.6836	0.143
Mof_N 	N 	0.4411	0.1393	0.0322	-0.129
Mof_C 	C 	0.7889	0.6519	0.0859	-0.427
Mof_C 	C 	0.7695	0.7436	0.1411	-0.369
Mof_H 	H 	0.6884	0.7226	0.1359	0.135
Mof_H 	H 	0.818	0.8198	0.1127	0.14
Mof_H 	H 	0.7897	0.7452	0.2091	0.113
Mof_N 	N 	0.8853	0.6468	0.0862	0.399
Mof_H 	H 	0.4733	0.8256	0.7818	0.337
Mof_H 	H 	0.411	0.8256	0.6836	0.148
Mof_N 	N 	0.6982	0.5589	0.0322	-0.129
Mof_C 	C 	0.863	0.2111	0.0859	-0.425
Mof_C 	C 	0.9741	0.2305	0.1411	-0.282
Mof_H 	H 	0.0342	0.3116	0.1359	0.104
Mof_H 	H 	0.0018	0.182	0.1127	0.105
Mof_H 	H 	0.9555	0.2103	0.2091	0.09
Mof_N 	N 	0.7615	0.1147	0.0862	0.414
Mof_H 	H 	0.3523	0.5267	0.7818	0.329
Mof_H 	H 	0.4146	0.589	0.6836	0.144
Mof_N 	N 	0.8607	0.3018	0.0322	-0.123
Mof_C 	C 	0.50825	0.0165	0.25	0.57
Mof_C 	C 	0.57315	0.1463	0.25	-1.846
Mof_C 	C 	0.9835	0.49175	0.25	0.608
Mof_C 	C 	0.8537	0.42685	0.25	-1.913
Mof_C 	C 	0.50825	0.49175	0.25	0.581
Mof_C 	C 	0.57315	0.42685	0.25	-1.865
Mof_C 	C 	0.49175	0.9835	0.75	0.614
Mof_C 	C 	0.42685	0.8537	0.75	-1.935
Mof_C 	C 	0.0165	0.50825	0.75	0.58
Mof_C 	C 	0.1463	0.57315	0.75	-1.876
Mof_C 	C 	0.49175	0.50825	0.75	0.587
Mof_C 	C 	0.42685	0.57315	0.75	-1.888
Mof_Cd	Cd	0.33333	0.66667	0.39869	0.354
Mof_Cd	Cd	0.66667	0.33333	0.89869	0.366
Mof_Cd	Cd	0.66667	0.33333	0.60131	0.355
Mof_Cd	Cd	0.33333	0.66667	0.10131	0.347
Mof_Cd	Cd	-3.55567e-17	0.5	0.5	0.336
Mof_Cd	Cd	0.5	0.5	0.5	0.341
Mof_Cd	Cd	0.5	0	0.5	0.335
Mof_Cd	Cd	-2.79091e-17	0.5	-0	0.297
Mof_Cd	Cd	0.5	0.5	-0	0.308
Mof_Cd	Cd	0.5	0	-0	0.307
Mof_N 	N 	0.24785	0.4957	0.4996	-0.081
Mof_N 	N 	0.41945	0.8389	0.2976	-0.078
Mof_N 	N 	0.47465	0.9493	0.3305	-0.215
Mof_N 	N 	0.5043	0.75215	0.4996	-0.081
Mof_N 	N 	0.1611	0.58055	0.2976	-0.078
Mof_N 	N 	0.0507	0.52535	0.3305	-0.227
Mof_N 	N 	0.24785	0.75215	0.4996	-0.081
Mof_N 	N 	0.41945	0.58055	0.2976	-0.078
Mof_N 	N 	0.47465	0.52535	0.3305	-0.219
Mof_N 	N 	0.75215	0.5043	0.9996	-0.056
Mof_N 	N 	0.58055	0.1611	0.7976	-0.076
Mof_N 	N 	0.52535	0.0507	0.8305	-0.223
Mof_N 	N 	0.4957	0.24785	0.9996	-0.055
Mof_N 	N 	0.8389	0.41945	0.7976	-0.076
Mof_N 	N 	0.9493	0.47465	0.8305	-0.211
Mof_N 	N 	0.75215	0.24785	0.9996	-0.058
Mof_N 	N 	0.58055	0.41945	0.7976	-0.076
Mof_N 	N 	0.52535	0.47465	0.8305	-0.214
Mof_N 	N 	0.4957	0.24785	0.5004	-0.081
Mof_N 	N 	0.8389	0.41945	0.7024	-0.078
Mof_N 	N 	0.9493	0.47465	0.6695	-0.217
Mof_N 	N 	0.75215	0.5043	0.5004	-0.081
Mof_N 	N 	0.58055	0.1611	0.7024	-0.078
Mof_N 	N 	0.52535	0.0507	0.6695	-0.228
Mof_N 	N 	0.75215	0.24785	0.5004	-0.081
Mof_N 	N 	0.58055	0.41945	0.7024	-0.078
Mof_N 	N 	0.52535	0.47465	0.6695	-0.22
Mof_N 	N 	0.5043	0.75215	0.0004	-0.109
Mof_N 	N 	0.1611	0.58055	0.2024	-0.078
Mof_N 	N 	0.0507	0.52535	0.1695	-0.227
Mof_N 	N 	0.24785	0.4957	0.0004	-0.109
Mof_N 	N 	0.41945	0.8389	0.2024	-0.079
Mof_N 	N 	0.47465	0.9493	0.1695	-0.216
Mof_N 	N 	0.24785	0.75215	0.0004	-0.112
Mof_N 	N 	0.41945	0.58055	0.2024	-0.078
Mof_N 	N 	0.47465	0.52535	0.1695	-0.219
_end
