data_functionalizedCrystal
_audit_creation_method	'EQeq! by Chris Wilmer'
_symmetry_space_group_name_H-M	'P1'
_symmetry_Int_Tables_number	1
_symmetry_cell_setting	triclinic
loop_
_symmetry_equiv_pos_as_xyz
  x,y,z
_cell_length_a	18.542
_cell_length_b	18.542
_cell_length_c	37.5167
_cell_angle_alpha	90
_cell_angle_beta	90
_cell_angle_gamma	120
loop_
_atom_site_label
_atom_site_type_symbol
_atom_site_fract_x
_atom_site_fract_y
_atom_site_fract_z
_atom_site_charge
Mof_O 	O 	0.4822	0.3721	0.99599	-0.41
Mof_O 	O 	0.442	0.4105	0.04501	-0.413
Mof_C 	C 	0.453	0.3603	0.0272	0.364
Mof_C 	C 	0.4308	0.2801	0.04451	-0.072
Mof_C 	C 	0.3994	0.2652	0.07793	-0.051
Mof_H 	H 	0.3886	0.3037	0.089	0.065
Mof_C 	C 	0.3175	0.2192	0.14711	-0.024
Mof_H 	H 	0.2584	0.1793	0.1456	0.032
Mof_H 	H 	0.3295	0.2703	0.1351	0.025
Mof_C 	C 	0.3722	0.2427	0.1544	-0.023
Mof_H 	H 	0.381	0.2931	0.1428	0.026
Mof_H 	H 	0.4224	0.2532	0.1669	0.028
Mof_O 	O 	0.14887	0.70543	0.32932	-0.41
Mof_O 	O 	0.10867	0.74383	0.37834	-0.413
Mof_C 	C 	0.11967	0.69363	0.36053	0.363
Mof_C 	C 	0.09747	0.61343	0.37784	-0.073
Mof_C 	C 	0.06607	0.59853	0.41126	-0.052
Mof_H 	H 	0.05527	0.63703	0.42233	0.064
Mof_C 	C 	0.98417	0.55253	0.48044	-0.025
Mof_H 	H 	0.92507	0.51263	0.47893	0.031
Mof_H 	H 	0.99617	0.60363	0.46843	0.024
Mof_C 	C 	0.03887	0.57603	0.48773	-0.023
Mof_H 	H 	0.04767	0.62643	0.47613	0.025
Mof_H 	H 	0.08907	0.58653	0.50023	0.027
Mof_O 	O 	0.81553	0.03877	0.66266	-0.411
Mof_O 	O 	0.77533	0.07717	0.71168	-0.414
Mof_C 	C 	0.78633	0.02697	0.69387	0.363
Mof_C 	C 	0.76413	0.94677	0.71118	-0.073
Mof_C 	C 	0.73273	0.93187	0.7446	-0.052
Mof_H 	H 	0.72193	0.97037	0.75567	0.064
Mof_C 	C 	0.65083	0.88587	0.81378	-0.025
Mof_H 	H 	0.59173	0.84597	0.81227	0.031
Mof_H 	H 	0.66283	0.93697	0.80177	0.024
Mof_C 	C 	0.70553	0.90937	0.82107	-0.024
Mof_H 	H 	0.71433	0.95977	0.80947	0.025
Mof_H 	H 	0.75573	0.91987	0.83357	0.027
Mof_O 	O 	0.6279	0.1101	0.99599	-0.411
Mof_O 	O 	0.5895	0.0315	0.04501	-0.414
Mof_C 	C 	0.6397	0.0927	0.0272	0.363
Mof_C 	C 	0.7199	0.1507	0.04451	-0.073
Mof_C 	C 	0.7348	0.1342	0.07793	-0.052
Mof_H 	H 	0.6963	0.0849	0.089	0.064
Mof_C 	C 	0.7808	0.0983	0.14711	-0.025
Mof_H 	H 	0.8207	0.0791	0.1456	0.031
Mof_H 	H 	0.7297	0.0592	0.1351	0.024
Mof_C 	C 	0.7573	0.1295	0.1544	-0.024
Mof_H 	H 	0.7069	0.0879	0.1428	0.025
Mof_H 	H 	0.7468	0.1692	0.1669	0.027
Mof_O 	O 	0.29457	0.44343	0.32932	-0.411
Mof_O 	O 	0.25617	0.36483	0.37834	-0.414
Mof_C 	C 	0.30637	0.42603	0.36053	0.363
Mof_C 	C 	0.38657	0.48403	0.37784	-0.073
Mof_C 	C 	0.40147	0.46753	0.41126	-0.052
Mof_H 	H 	0.36297	0.41823	0.42233	0.064
Mof_C 	C 	0.44747	0.43163	0.48044	-0.025
Mof_H 	H 	0.48737	0.41243	0.47893	0.031
Mof_H 	H 	0.39637	0.39253	0.46843	0.024
Mof_C 	C 	0.42397	0.46283	0.48773	-0.024
Mof_H 	H 	0.37357	0.42123	0.47613	0.025
Mof_H 	H 	0.41347	0.50253	0.50023	0.027
Mof_O 	O 	0.96123	0.77677	0.66266	-0.411
Mof_O 	O 	0.92283	0.69817	0.71168	-0.414
Mof_C 	C 	0.97303	0.75937	0.69387	0.363
Mof_C 	C 	0.05323	0.81737	0.71118	-0.073
Mof_C 	C 	0.06813	0.80087	0.7446	-0.052
Mof_H 	H 	0.02963	0.75157	0.75567	0.064
Mof_C 	C 	0.11413	0.76497	0.81378	-0.025
Mof_H 	H 	0.15403	0.74577	0.81227	0.031
Mof_H 	H 	0.06303	0.72587	0.80177	0.024
Mof_C 	C 	0.09063	0.79617	0.82107	-0.024
Mof_H 	H 	0.04023	0.75457	0.80947	0.025
Mof_H 	H 	0.08013	0.83587	0.83357	0.027
Mof_O 	O 	0.8899	0.5178	0.99599	-0.411
Mof_O 	O 	0.9685	0.558	0.04501	-0.414
Mof_C 	C 	0.9073	0.547	0.0272	0.363
Mof_C 	C 	0.8493	0.5692	0.04451	-0.073
Mof_C 	C 	0.8658	0.6006	0.07793	-0.052
Mof_H 	H 	0.9151	0.6114	0.089	0.064
Mof_C 	C 	0.9017	0.6825	0.14711	-0.025
Mof_H 	H 	0.9209	0.7416	0.1456	0.031
Mof_H 	H 	0.9408	0.6705	0.1351	0.024
Mof_C 	C 	0.8705	0.6278	0.1544	-0.024
Mof_H 	H 	0.9121	0.619	0.1428	0.025
Mof_H 	H 	0.8308	0.5776	0.1669	0.027
Mof_O 	O 	0.55657	0.85113	0.32932	-0.411
Mof_O 	O 	0.63517	0.89133	0.37834	-0.414
Mof_C 	C 	0.57397	0.88033	0.36053	0.363
Mof_C 	C 	0.51597	0.90253	0.37784	-0.073
Mof_C 	C 	0.53247	0.93393	0.41126	-0.052
Mof_H 	H 	0.58177	0.94473	0.42233	0.064
Mof_C 	C 	0.56837	0.01583	0.48044	-0.025
Mof_H 	H 	0.58757	0.07493	0.47893	0.031
Mof_H 	H 	0.60747	0.00383	0.46843	0.024
Mof_C 	C 	0.53717	0.96113	0.48773	-0.024
Mof_H 	H 	0.57877	0.95233	0.47613	0.025
Mof_H 	H 	0.49747	0.91093	0.50023	0.027
Mof_O 	O 	0.22323	0.18447	0.66266	-0.411
Mof_O 	O 	0.30183	0.22467	0.71168	-0.414
Mof_C 	C 	0.24063	0.21367	0.69387	0.363
Mof_C 	C 	0.18263	0.23587	0.71118	-0.073
Mof_C 	C 	0.19913	0.26727	0.7446	-0.052
Mof_H 	H 	0.24843	0.27807	0.75567	0.064
Mof_C 	C 	0.23503	0.34917	0.81378	-0.025
Mof_H 	H 	0.25423	0.40827	0.81227	0.031
Mof_H 	H 	0.27413	0.33717	0.80177	0.024
Mof_C 	C 	0.20383	0.29447	0.82107	-0.024
Mof_H 	H 	0.24543	0.28567	0.80947	0.025
Mof_H 	H 	0.16413	0.24427	0.83357	0.027
Mof_O 	O 	0.3721	0.4822	0.00401	-0.411
Mof_O 	O 	0.4105	0.442	0.95499	-0.414
Mof_C 	C 	0.3603	0.453	0.9728	0.363
Mof_C 	C 	0.2801	0.4308	0.95549	-0.073
Mof_C 	C 	0.2652	0.3994	0.92207	-0.052
Mof_H 	H 	0.3037	0.3886	0.911	0.064
Mof_C 	C 	0.2192	0.3175	0.85289	-0.025
Mof_H 	H 	0.1793	0.2584	0.8544	0.031
Mof_H 	H 	0.2703	0.3295	0.8649	0.024
Mof_C 	C 	0.2427	0.3722	0.8456	-0.024
Mof_H 	H 	0.2931	0.381	0.8572	0.025
Mof_H 	H 	0.2532	0.4224	0.8331	0.027
Mof_O 	O 	0.03877	0.81553	0.33734	-0.411
Mof_O 	O 	0.07717	0.77533	0.28832	-0.414
Mof_C 	C 	0.02697	0.78633	0.30613	0.363
Mof_C 	C 	0.94677	0.76413	0.28882	-0.073
Mof_C 	C 	0.93187	0.73273	0.2554	-0.052
Mof_H 	H 	0.97037	0.72193	0.24433	0.064
Mof_C 	C 	0.88587	0.65083	0.18622	-0.025
Mof_H 	H 	0.84597	0.59173	0.18773	0.031
Mof_H 	H 	0.93697	0.66283	0.19823	0.024
Mof_C 	C 	0.90937	0.70553	0.17893	-0.024
Mof_H 	H 	0.95977	0.71433	0.19053	0.025
Mof_H 	H 	0.91987	0.75573	0.16643	0.027
Mof_O 	O 	0.70543	0.14887	0.67068	-0.411
Mof_O 	O 	0.74383	0.10867	0.62166	-0.414
Mof_C 	C 	0.69363	0.11967	0.63947	0.363
Mof_C 	C 	0.61343	0.09747	0.62216	-0.073
Mof_C 	C 	0.59853	0.06607	0.58874	-0.052
Mof_H 	H 	0.63703	0.05527	0.57767	0.064
Mof_C 	C 	0.55253	0.98417	0.51956	-0.025
Mof_H 	H 	0.51263	0.92507	0.52107	0.031
Mof_H 	H 	0.60363	0.99617	0.53157	0.024
Mof_C 	C 	0.57603	0.03887	0.51227	-0.023
Mof_H 	H 	0.62643	0.04767	0.52387	0.025
Mof_H 	H 	0.58653	0.08907	0.49977	0.027
Mof_O 	O 	0.1101	0.6279	0.00401	-0.411
Mof_O 	O 	0.0315	0.5895	0.95499	-0.414
Mof_C 	C 	0.0927	0.6397	0.9728	0.363
Mof_C 	C 	0.1507	0.7199	0.95549	-0.073
Mof_C 	C 	0.1342	0.7348	0.92207	-0.052
Mof_H 	H 	0.0849	0.6963	0.911	0.064
Mof_C 	C 	0.0983	0.7808	0.85289	-0.025
Mof_H 	H 	0.0791	0.8207	0.8544	0.031
Mof_H 	H 	0.0592	0.7297	0.8649	0.024
Mof_C 	C 	0.1295	0.7573	0.8456	-0.024
Mof_H 	H 	0.0879	0.7069	0.8572	0.025
Mof_H 	H 	0.1692	0.7468	0.8331	0.027
Mof_O 	O 	0.77677	0.96123	0.33734	-0.411
Mof_O 	O 	0.69817	0.92283	0.28832	-0.414
Mof_C 	C 	0.75937	0.97303	0.30613	0.363
Mof_C 	C 	0.81737	0.05323	0.28882	-0.073
Mof_C 	C 	0.80087	0.06813	0.2554	-0.052
Mof_H 	H 	0.75157	0.02963	0.24433	0.064
Mof_C 	C 	0.76497	0.11413	0.18622	-0.025
Mof_H 	H 	0.74577	0.15403	0.18773	0.031
Mof_H 	H 	0.72587	0.06303	0.19823	0.024
Mof_C 	C 	0.79617	0.09063	0.17893	-0.024
Mof_H 	H 	0.75457	0.04023	0.19053	0.025
Mof_H 	H 	0.83587	0.08013	0.16643	0.027
Mof_O 	O 	0.44343	0.29457	0.67068	-0.411
Mof_O 	O 	0.36483	0.25617	0.62166	-0.414
Mof_C 	C 	0.42603	0.30637	0.63947	0.363
Mof_C 	C 	0.48403	0.38657	0.62216	-0.073
Mof_C 	C 	0.46753	0.40147	0.58874	-0.052
Mof_H 	H 	0.41823	0.36297	0.57767	0.064
Mof_C 	C 	0.43163	0.44747	0.51956	-0.025
Mof_H 	H 	0.41243	0.48737	0.52107	0.031
Mof_H 	H 	0.39253	0.39637	0.53157	0.024
Mof_C 	C 	0.46283	0.42397	0.51227	-0.024
Mof_H 	H 	0.42123	0.37357	0.52387	0.025
Mof_H 	H 	0.50253	0.41347	0.49977	0.027
Mof_O 	O 	0.5178	0.8899	0.00401	-0.411
Mof_O 	O 	0.558	0.9685	0.95499	-0.414
Mof_C 	C 	0.547	0.9073	0.9728	0.363
Mof_C 	C 	0.5692	0.8493	0.95549	-0.073
Mof_C 	C 	0.6006	0.8658	0.92207	-0.052
Mof_H 	H 	0.6114	0.9151	0.911	0.064
Mof_C 	C 	0.6825	0.9017	0.85289	-0.025
Mof_H 	H 	0.7416	0.9209	0.8544	0.031
Mof_H 	H 	0.6705	0.9408	0.8649	0.024
Mof_C 	C 	0.6278	0.8705	0.8456	-0.024
Mof_H 	H 	0.619	0.9121	0.8572	0.025
Mof_H 	H 	0.5776	0.8308	0.8331	0.027
Mof_O 	O 	0.18447	0.22323	0.33734	-0.411
Mof_O 	O 	0.22467	0.30183	0.28832	-0.414
Mof_C 	C 	0.21367	0.24063	0.30613	0.363
Mof_C 	C 	0.23587	0.18263	0.28882	-0.073
Mof_C 	C 	0.26727	0.19913	0.2554	-0.052
Mof_H 	H 	0.27807	0.24843	0.24433	0.064
Mof_C 	C 	0.34917	0.23503	0.18622	-0.025
Mof_H 	H 	0.40827	0.25423	0.18773	0.031
Mof_H 	H 	0.33717	0.27413	0.19823	0.024
Mof_C 	C 	0.29447	0.20383	0.17893	-0.024
Mof_H 	H 	0.28567	0.24543	0.19053	0.025
Mof_H 	H 	0.24427	0.16413	0.16643	0.027
Mof_O 	O 	0.85113	0.55657	0.67068	-0.411
Mof_O 	O 	0.89133	0.63517	0.62166	-0.414
Mof_C 	C 	0.88033	0.57397	0.63947	0.363
Mof_C 	C 	0.90253	0.51597	0.62216	-0.073
Mof_C 	C 	0.93393	0.53247	0.58874	-0.052
Mof_H 	H 	0.94473	0.58177	0.57767	0.064
Mof_C 	C 	0.01583	0.56837	0.51956	-0.025
Mof_H 	H 	0.07493	0.58757	0.52107	0.031
Mof_H 	H 	0.00383	0.60747	0.53157	0.024
Mof_C 	C 	0.96113	0.53717	0.51227	-0.024
Mof_H 	H 	0.95233	0.57877	0.52387	0.025
Mof_H 	H 	0.91093	0.49747	0.49977	0.027
Mof_O 	O 	0.5178	0.6279	0.00401	-0.411
Mof_O 	O 	0.558	0.5895	0.95499	-0.414
Mof_C 	C 	0.547	0.6397	0.9728	0.363
Mof_C 	C 	0.5692	0.7199	0.95549	-0.073
Mof_C 	C 	0.6006	0.7348	0.92207	-0.052
Mof_H 	H 	0.6114	0.6963	0.911	0.064
Mof_C 	C 	0.6825	0.7808	0.85289	-0.025
Mof_H 	H 	0.7416	0.8207	0.8544	0.031
Mof_H 	H 	0.6705	0.7297	0.8649	0.024
Mof_C 	C 	0.6278	0.7573	0.8456	-0.024
Mof_H 	H 	0.619	0.7069	0.8572	0.025
Mof_H 	H 	0.5776	0.7468	0.8331	0.027
Mof_O 	O 	0.18447	0.96123	0.33734	-0.411
Mof_O 	O 	0.22467	0.92283	0.28832	-0.414
Mof_C 	C 	0.21367	0.97303	0.30613	0.363
Mof_C 	C 	0.23587	0.05323	0.28882	-0.073
Mof_C 	C 	0.26727	0.06813	0.2554	-0.052
Mof_H 	H 	0.27807	0.02963	0.24433	0.064
Mof_C 	C 	0.34917	0.11413	0.18622	-0.025
Mof_H 	H 	0.40827	0.15403	0.18773	0.031
Mof_H 	H 	0.33717	0.06303	0.19823	0.024
Mof_C 	C 	0.29447	0.09063	0.17893	-0.024
Mof_H 	H 	0.28567	0.04023	0.19053	0.025
Mof_H 	H 	0.24427	0.08013	0.16643	0.027
Mof_O 	O 	0.85113	0.29457	0.67068	-0.411
Mof_O 	O 	0.89133	0.25617	0.62166	-0.414
Mof_C 	C 	0.88033	0.30637	0.63947	0.363
Mof_C 	C 	0.90253	0.38657	0.62216	-0.073
Mof_C 	C 	0.93393	0.40147	0.58874	-0.052
Mof_H 	H 	0.94473	0.36297	0.57767	0.064
Mof_C 	C 	0.01583	0.44747	0.51956	-0.025
Mof_H 	H 	0.07493	0.48737	0.52107	0.031
Mof_H 	H 	0.00383	0.39637	0.53157	0.024
Mof_C 	C 	0.96113	0.42397	0.51227	-0.023
Mof_H 	H 	0.95233	0.37357	0.52387	0.025
Mof_H 	H 	0.91093	0.41347	0.49977	0.027
Mof_O 	O 	0.3721	0.8899	0.00401	-0.411
Mof_O 	O 	0.4105	0.9685	0.95499	-0.414
Mof_C 	C 	0.3603	0.9073	0.9728	0.363
Mof_C 	C 	0.2801	0.8493	0.95549	-0.073
Mof_C 	C 	0.2652	0.8658	0.92207	-0.052
Mof_H 	H 	0.3037	0.9151	0.911	0.064
Mof_C 	C 	0.2192	0.9017	0.85289	-0.025
Mof_H 	H 	0.1793	0.9209	0.8544	0.031
Mof_H 	H 	0.2703	0.9408	0.8649	0.024
Mof_C 	C 	0.2427	0.8705	0.8456	-0.024
Mof_H 	H 	0.2931	0.9121	0.8572	0.025
Mof_H 	H 	0.2532	0.8308	0.8331	0.027
Mof_O 	O 	0.03877	0.22323	0.33734	-0.411
Mof_O 	O 	0.07717	0.30183	0.28832	-0.414
Mof_C 	C 	0.02697	0.24063	0.30613	0.363
Mof_C 	C 	0.94677	0.18263	0.28882	-0.073
Mof_C 	C 	0.93187	0.19913	0.2554	-0.052
Mof_H 	H 	0.97037	0.24843	0.24433	0.064
Mof_C 	C 	0.88587	0.23503	0.18622	-0.025
Mof_H 	H 	0.84597	0.25423	0.18773	0.031
Mof_H 	H 	0.93697	0.27413	0.19823	0.024
Mof_C 	C 	0.90937	0.20383	0.17893	-0.024
Mof_H 	H 	0.95977	0.24543	0.19053	0.025
Mof_H 	H 	0.91987	0.16413	0.16643	0.027
Mof_O 	O 	0.70543	0.55657	0.67068	-0.411
Mof_O 	O 	0.74383	0.63517	0.62166	-0.414
Mof_C 	C 	0.69363	0.57397	0.63947	0.363
Mof_C 	C 	0.61343	0.51597	0.62216	-0.073
Mof_C 	C 	0.59853	0.53247	0.58874	-0.052
Mof_H 	H 	0.63703	0.58177	0.57767	0.064
Mof_C 	C 	0.55253	0.56837	0.51956	-0.025
Mof_H 	H 	0.51263	0.58757	0.52107	0.031
Mof_H 	H 	0.60363	0.60747	0.53157	0.024
Mof_C 	C 	0.57603	0.53717	0.51227	-0.024
Mof_H 	H 	0.62643	0.57877	0.52387	0.025
Mof_H 	H 	0.58653	0.49747	0.49977	0.027
Mof_O 	O 	0.1101	0.4822	0.00401	-0.411
Mof_O 	O 	0.0315	0.442	0.95499	-0.414
Mof_C 	C 	0.0927	0.453	0.9728	0.363
Mof_C 	C 	0.1507	0.4308	0.95549	-0.073
Mof_C 	C 	0.1342	0.3994	0.92207	-0.052
Mof_H 	H 	0.0849	0.3886	0.911	0.064
Mof_C 	C 	0.0983	0.3175	0.85289	-0.025
Mof_H 	H 	0.0791	0.2584	0.8544	0.031
Mof_H 	H 	0.0592	0.3295	0.8649	0.024
Mof_C 	C 	0.1295	0.3722	0.8456	-0.024
Mof_H 	H 	0.0879	0.381	0.8572	0.025
Mof_H 	H 	0.1692	0.4224	0.8331	0.027
Mof_O 	O 	0.77677	0.81553	0.33734	-0.411
Mof_O 	O 	0.69817	0.77533	0.28832	-0.414
Mof_C 	C 	0.75937	0.78633	0.30613	0.363
Mof_C 	C 	0.81737	0.76413	0.28882	-0.073
Mof_C 	C 	0.80087	0.73273	0.2554	-0.052
Mof_H 	H 	0.75157	0.72193	0.24433	0.064
Mof_C 	C 	0.76497	0.65083	0.18622	-0.025
Mof_H 	H 	0.74577	0.59173	0.18773	0.031
Mof_H 	H 	0.72587	0.66283	0.19823	0.024
Mof_C 	C 	0.79617	0.70553	0.17893	-0.024
Mof_H 	H 	0.75457	0.71433	0.19053	0.025
Mof_H 	H 	0.83587	0.75573	0.16643	0.027
Mof_O 	O 	0.44343	0.14887	0.67068	-0.411
Mof_O 	O 	0.36483	0.10867	0.62166	-0.414
Mof_C 	C 	0.42603	0.11967	0.63947	0.363
Mof_C 	C 	0.48403	0.09747	0.62216	-0.073
Mof_C 	C 	0.46753	0.06607	0.58874	-0.052
Mof_H 	H 	0.41823	0.05527	0.57767	0.064
Mof_C 	C 	0.43163	0.98417	0.51956	-0.025
Mof_H 	H 	0.41243	0.92507	0.52107	0.031
Mof_H 	H 	0.39253	0.99617	0.53157	0.024
Mof_C 	C 	0.46283	0.03887	0.51227	-0.024
Mof_H 	H 	0.42123	0.04767	0.52387	0.025
Mof_H 	H 	0.50253	0.08907	0.49977	0.027
Mof_O 	O 	0.6279	0.5178	0.99599	-0.411
Mof_O 	O 	0.5895	0.558	0.04501	-0.414
Mof_C 	C 	0.6397	0.547	0.0272	0.363
Mof_C 	C 	0.7199	0.5692	0.04451	-0.073
Mof_C 	C 	0.7348	0.6006	0.07793	-0.052
Mof_H 	H 	0.6963	0.6114	0.089	0.064
Mof_C 	C 	0.7808	0.6825	0.14711	-0.025
Mof_H 	H 	0.8207	0.7416	0.1456	0.031
Mof_H 	H 	0.7297	0.6705	0.1351	0.024
Mof_C 	C 	0.7573	0.6278	0.1544	-0.024
Mof_H 	H 	0.7069	0.619	0.1428	0.025
Mof_H 	H 	0.7468	0.5776	0.1669	0.027
Mof_O 	O 	0.29457	0.85113	0.32932	-0.411
Mof_O 	O 	0.25617	0.89133	0.37834	-0.414
Mof_C 	C 	0.30637	0.88033	0.36053	0.363
Mof_C 	C 	0.38657	0.90253	0.37784	-0.073
Mof_C 	C 	0.40147	0.93393	0.41126	-0.052
Mof_H 	H 	0.36297	0.94473	0.42233	0.064
Mof_C 	C 	0.44747	0.01583	0.48044	-0.025
Mof_H 	H 	0.48737	0.07493	0.47893	0.031
Mof_H 	H 	0.39637	0.00383	0.46843	0.024
Mof_C 	C 	0.42397	0.96113	0.48773	-0.023
Mof_H 	H 	0.37357	0.95233	0.47613	0.025
Mof_H 	H 	0.41347	0.91093	0.50023	0.027
Mof_O 	O 	0.96123	0.18447	0.66266	-0.411
Mof_O 	O 	0.92283	0.22467	0.71168	-0.414
Mof_C 	C 	0.97303	0.21367	0.69387	0.363
Mof_C 	C 	0.05323	0.23587	0.71118	-0.073
Mof_C 	C 	0.06813	0.26727	0.7446	-0.052
Mof_H 	H 	0.02963	0.27807	0.75567	0.064
Mof_C 	C 	0.11413	0.34917	0.81378	-0.025
Mof_H 	H 	0.15403	0.40827	0.81227	0.031
Mof_H 	H 	0.06303	0.33717	0.80177	0.024
Mof_C 	C 	0.09063	0.29447	0.82107	-0.024
Mof_H 	H 	0.04023	0.28567	0.80947	0.025
Mof_H 	H 	0.08013	0.24427	0.83357	0.027
Mof_O 	O 	0.8899	0.3721	0.99599	-0.411
Mof_O 	O 	0.9685	0.4105	0.04501	-0.414
Mof_C 	C 	0.9073	0.3603	0.0272	0.363
Mof_C 	C 	0.8493	0.2801	0.04451	-0.073
Mof_C 	C 	0.8658	0.2652	0.07793	-0.052
Mof_H 	H 	0.9151	0.3037	0.089	0.064
Mof_C 	C 	0.9017	0.2192	0.14711	-0.025
Mof_H 	H 	0.9209	0.1793	0.1456	0.031
Mof_H 	H 	0.9408	0.2703	0.1351	0.024
Mof_C 	C 	0.8705	0.2427	0.1544	-0.024
Mof_H 	H 	0.9121	0.2931	0.1428	0.025
Mof_H 	H 	0.8308	0.2532	0.1669	0.027
Mof_O 	O 	0.55657	0.70543	0.32932	-0.411
Mof_O 	O 	0.63517	0.74383	0.37834	-0.414
Mof_C 	C 	0.57397	0.69363	0.36053	0.363
Mof_C 	C 	0.51597	0.61343	0.37784	-0.073
Mof_C 	C 	0.53247	0.59853	0.41126	-0.052
Mof_H 	H 	0.58177	0.63703	0.42233	0.064
Mof_C 	C 	0.56837	0.55253	0.48044	-0.025
Mof_H 	H 	0.58757	0.51263	0.47893	0.031
Mof_H 	H 	0.60747	0.60363	0.46843	0.024
Mof_C 	C 	0.53717	0.57603	0.48773	-0.024
Mof_H 	H 	0.57877	0.62643	0.47613	0.025
Mof_H 	H 	0.49747	0.58653	0.50023	0.027
Mof_O 	O 	0.22323	0.03877	0.66266	-0.411
Mof_O 	O 	0.30183	0.07717	0.71168	-0.414
Mof_C 	C 	0.24063	0.02697	0.69387	0.363
Mof_C 	C 	0.18263	0.94677	0.71118	-0.073
Mof_C 	C 	0.19913	0.93187	0.7446	-0.052
Mof_H 	H 	0.24843	0.97037	0.75567	0.064
Mof_C 	C 	0.23503	0.88587	0.81378	-0.025
Mof_H 	H 	0.25423	0.84597	0.81227	0.031
Mof_H 	H 	0.27413	0.93697	0.80177	0.024
Mof_C 	C 	0.20383	0.90937	0.82107	-0.024
Mof_H 	H 	0.24543	0.95977	0.80947	0.025
Mof_H 	H 	0.16413	0.91987	0.83357	0.027
Mof_O 	O 	0.4822	0.1101	0.99599	-0.411
Mof_O 	O 	0.442	0.0315	0.04501	-0.414
Mof_C 	C 	0.453	0.0927	0.0272	0.363
Mof_C 	C 	0.4308	0.1507	0.04451	-0.073
Mof_C 	C 	0.3994	0.1342	0.07793	-0.052
Mof_H 	H 	0.3886	0.0849	0.089	0.064
Mof_C 	C 	0.3175	0.0983	0.14711	-0.025
Mof_H 	H 	0.2584	0.0791	0.1456	0.031
Mof_H 	H 	0.3295	0.0592	0.1351	0.024
Mof_C 	C 	0.3722	0.1295	0.1544	-0.024
Mof_H 	H 	0.381	0.0879	0.1428	0.025
Mof_H 	H 	0.4224	0.1692	0.1669	0.027
Mof_O 	O 	0.14887	0.44343	0.32932	-0.411
Mof_O 	O 	0.10867	0.36483	0.37834	-0.414
Mof_C 	C 	0.11967	0.42603	0.36053	0.363
Mof_C 	C 	0.09747	0.48403	0.37784	-0.073
Mof_C 	C 	0.06607	0.46753	0.41126	-0.052
Mof_H 	H 	0.05527	0.41823	0.42233	0.064
Mof_C 	C 	0.98417	0.43163	0.48044	-0.025
Mof_H 	H 	0.92507	0.41243	0.47893	0.031
Mof_H 	H 	0.99617	0.39253	0.46843	0.024
Mof_C 	C 	0.03887	0.46283	0.48773	-0.024
Mof_H 	H 	0.04767	0.42123	0.47613	0.025
Mof_H 	H 	0.08907	0.50253	0.50023	0.027
Mof_O 	O 	0.81553	0.77677	0.66266	-0.411
Mof_O 	O 	0.77533	0.69817	0.71168	-0.414
Mof_C 	C 	0.78633	0.75937	0.69387	0.363
Mof_C 	C 	0.76413	0.81737	0.71118	-0.073
Mof_C 	C 	0.73273	0.80087	0.7446	-0.052
Mof_H 	H 	0.72193	0.75157	0.75567	0.064
Mof_C 	C 	0.65083	0.76497	0.81378	-0.025
Mof_H 	H 	0.59173	0.74577	0.81227	0.031
Mof_H 	H 	0.66283	0.72587	0.80177	0.024
Mof_C 	C 	0.70553	0.79617	0.82107	-0.024
Mof_H 	H 	0.71433	0.75457	0.80947	0.025
Mof_H 	H 	0.75573	0.83587	0.83357	0.027
Mof_Cu	Cu	0.52371	0.47629	0.97095	0.909
Mof_Cu	Cu	0.19038	0.80962	0.30428	0.909
Mof_Cu	Cu	0.85704	0.14296	0.63762	0.909
Mof_Cu	Cu	0.52371	0.04742	0.97095	0.909
Mof_Cu	Cu	0.19038	0.38075	0.30428	0.909
Mof_Cu	Cu	0.85704	0.71409	0.63762	0.909
Mof_Cu	Cu	0.95258	0.47629	0.97095	0.909
Mof_Cu	Cu	0.61925	0.80962	0.30428	0.909
Mof_Cu	Cu	0.28591	0.14296	0.63762	0.909
Mof_Cu	Cu	0.47629	0.52371	0.02905	0.909
Mof_Cu	Cu	0.14296	0.85704	0.36238	0.909
Mof_Cu	Cu	0.80962	0.19038	0.69572	0.909
Mof_Cu	Cu	0.04742	0.52371	0.02905	0.909
Mof_Cu	Cu	0.71409	0.85704	0.36238	0.909
Mof_Cu	Cu	0.38075	0.19038	0.69572	0.909
Mof_Cu	Cu	0.47629	0.95258	0.02905	0.909
Mof_Cu	Cu	0.14296	0.28591	0.36238	0.909
Mof_Cu	Cu	0.80962	0.61925	0.69572	0.909
Mof_N 	N 	0.369	0.1845	0.1332	-0.035
Mof_C 	C 	0.4469	0.22345	0.0273	0.014
Mof_H 	H 	0.4685	0.23425	0.0043	0.055
Mof_C 	C 	0.3828	0.1914	0.0964	0.067
Mof_N 	N 	0.3414	0.1707	0.1294	-0.081
Mof_N 	N 	0.03567	0.51783	0.46653	-0.035
Mof_C 	C 	0.11357	0.55678	0.36063	0.014
Mof_H 	H 	0.13517	0.56758	0.33763	0.055
Mof_C 	C 	0.04947	0.52473	0.42973	0.067
Mof_N 	N 	0.00807	0.50403	0.46273	-0.081
Mof_N 	N 	0.70233	0.85117	0.79987	-0.035
Mof_C 	C 	0.78023	0.89012	0.69397	0.014
Mof_H 	H 	0.80183	0.90092	0.67097	0.055
Mof_C 	C 	0.71613	0.85807	0.76307	0.067
Mof_N 	N 	0.67473	0.83737	0.79607	-0.081
Mof_N 	N 	0.8155	0.1845	0.1332	-0.035
Mof_C 	C 	0.77655	0.22345	0.0273	0.014
Mof_H 	H 	0.76575	0.23425	0.0043	0.055
Mof_C 	C 	0.8086	0.1914	0.0964	0.067
Mof_N 	N 	0.8293	0.1707	0.1294	-0.081
Mof_N 	N 	0.48217	0.51783	0.46653	-0.035
Mof_C 	C 	0.44322	0.55678	0.36063	0.014
Mof_H 	H 	0.43242	0.56758	0.33763	0.055
Mof_C 	C 	0.47527	0.52473	0.42973	0.067
Mof_N 	N 	0.49597	0.50403	0.46273	-0.081
Mof_N 	N 	0.14883	0.85117	0.79987	-0.035
Mof_C 	C 	0.10988	0.89012	0.69397	0.014
Mof_H 	H 	0.09908	0.90092	0.67097	0.055
Mof_C 	C 	0.14193	0.85807	0.76307	0.067
Mof_N 	N 	0.16263	0.83737	0.79607	-0.081
Mof_N 	N 	0.8155	0.631	0.1332	-0.035
Mof_C 	C 	0.77655	0.5531	0.0273	0.014
Mof_H 	H 	0.76575	0.5315	0.0043	0.055
Mof_C 	C 	0.8086	0.6172	0.0964	0.067
Mof_N 	N 	0.8293	0.6586	0.1294	-0.081
Mof_N 	N 	0.48217	0.96433	0.46653	-0.035
Mof_C 	C 	0.44322	0.88643	0.36063	0.014
Mof_H 	H 	0.43242	0.86483	0.33763	0.055
Mof_C 	C 	0.47527	0.95053	0.42973	0.067
Mof_N 	N 	0.49597	0.99193	0.46273	-0.081
Mof_N 	N 	0.14883	0.29767	0.79987	-0.035
Mof_C 	C 	0.10988	0.21977	0.69397	0.014
Mof_H 	H 	0.09908	0.19817	0.67097	0.055
Mof_C 	C 	0.14193	0.28387	0.76307	0.067
Mof_N 	N 	0.16263	0.32527	0.79607	-0.081
Mof_N 	N 	0.1845	0.369	0.8668	-0.035
Mof_C 	C 	0.22345	0.4469	0.9727	0.014
Mof_H 	H 	0.23425	0.4685	0.9957	0.055
Mof_C 	C 	0.1914	0.3828	0.9036	0.067
Mof_N 	N 	0.1707	0.3414	0.8706	-0.081
Mof_N 	N 	0.85117	0.70233	0.20013	-0.035
Mof_C 	C 	0.89012	0.78023	0.30603	0.014
Mof_H 	H 	0.90092	0.80183	0.32903	0.055
Mof_C 	C 	0.85807	0.71613	0.23693	0.067
Mof_N 	N 	0.83737	0.67473	0.20393	-0.081
Mof_N 	N 	0.51783	0.03567	0.53347	-0.035
Mof_C 	C 	0.55678	0.11357	0.63937	0.014
Mof_H 	H 	0.56758	0.13517	0.66237	0.055
Mof_C 	C 	0.52473	0.04947	0.57027	0.067
Mof_N 	N 	0.50403	0.00807	0.53727	-0.081
Mof_N 	N 	0.1845	0.8155	0.8668	-0.035
Mof_C 	C 	0.22345	0.77655	0.9727	0.014
Mof_H 	H 	0.23425	0.76575	0.9957	0.055
Mof_C 	C 	0.1914	0.8086	0.9036	0.067
Mof_N 	N 	0.1707	0.8293	0.8706	-0.081
Mof_N 	N 	0.85117	0.14883	0.20013	-0.035
Mof_C 	C 	0.89012	0.10988	0.30603	0.014
Mof_H 	H 	0.90092	0.09908	0.32903	0.055
Mof_C 	C 	0.85807	0.14193	0.23693	0.067
Mof_N 	N 	0.83737	0.16263	0.20393	-0.081
Mof_N 	N 	0.51783	0.48217	0.53347	-0.035
Mof_C 	C 	0.55678	0.44322	0.63937	0.014
Mof_H 	H 	0.56758	0.43242	0.66237	0.055
Mof_C 	C 	0.52473	0.47527	0.57027	0.067
Mof_N 	N 	0.50403	0.49597	0.53727	-0.081
Mof_N 	N 	0.631	0.8155	0.8668	-0.035
Mof_C 	C 	0.5531	0.77655	0.9727	0.014
Mof_H 	H 	0.5315	0.76575	0.9957	0.055
Mof_C 	C 	0.6172	0.8086	0.9036	0.067
Mof_N 	N 	0.6586	0.8293	0.8706	-0.081
Mof_N 	N 	0.29767	0.14883	0.20013	-0.035
Mof_C 	C 	0.21977	0.10988	0.30603	0.014
Mof_H 	H 	0.19817	0.09908	0.32903	0.055
Mof_C 	C 	0.28387	0.14193	0.23693	0.067
Mof_N 	N 	0.32527	0.16263	0.20393	-0.081
Mof_N 	N 	0.96433	0.48217	0.53347	-0.035
Mof_C 	C 	0.88643	0.44322	0.63937	0.014
Mof_H 	H 	0.86483	0.43242	0.66237	0.055
Mof_C 	C 	0.95053	0.47527	0.57027	0.067
Mof_N 	N 	0.99193	0.49597	0.53727	-0.081
_end
