# CIF file generated by openbabel 2.4.1, see http://openbabel.sf.net
data_I
_chemical_name_common 'image0'
_cell_length_a 16.389
_cell_length_b 12.0113
_cell_length_c 12.2966
_cell_angle_alpha 90
_cell_angle_beta 90
_cell_angle_gamma 90
_space_group_name_H-M_alt 'P 1'
_space_group_name_Hall 'P 1'
loop_
    _symmetry_equiv_pos_as_xyz
    x,y,z
loop_
    _atom_site_label
    _atom_site_type_symbol
    _atom_site_fract_x
    _atom_site_fract_y
    _atom_site_fract_z
    _atom_site_occupancy
    Nd1     Nd   0.97015   0.16173   0.28105   1.000
    Br1     Br   0.97877   0.20020   0.50922   1.000
    Cl1     Cl   0.98020   0.20040   0.50760   1.000
    S1      S    0.78958   0.52046   0.52027   1.000
    O1      O    0.91364   0.35390   0.30198   1.000
    O2      O    0.92372   0.72878   0.21078   1.000
    C1      C    0.65063   0.50260   0.64180   1.000
    O3      O    0.66953   0.59859   0.67836   1.000
    O4      O    0.58177   0.46058   0.66110   1.000
    O5      O    0.91532   0.52686   0.35943   1.000
    C2      C    0.87072   0.68400   0.15140   1.000
    O6      O    0.87273   0.58251   0.12660   1.000
    C3      C    0.70877   0.44550   0.57000   1.000
    C4      C    0.81949   0.41030   0.44090   1.000
    C5      C    0.88749   0.42980   0.36500   1.000
    C6      C    0.70630   0.34080   0.52800   1.000
    H1      H    0.66600   0.28720   0.54650   1.000
    C7      C    0.80291   0.75080   0.10810   1.000
    S2      S    0.73239   0.68505   0.02505   1.000
    O7      O    0.55468   0.88528   0.94652   1.000
    O8      O    0.59481   0.71960   0.88225   1.000
    C8      C    0.60267   0.80340   0.94130   1.000
    C9      C    0.71170   0.89170   0.06710   1.000
    H2      H    0.68990   0.96500   0.06900   1.000
    C10     C    0.67614   0.80550   0.01210   1.000
    C11     C    0.77046   0.32060   0.45390   1.000
    H3      H    0.77830   0.25180   0.41730   1.000
    C12     C    0.78410   0.86010   0.12060   1.000
    H4      H    0.81660   0.91040   0.16140   1.000
    Nd2     Nd   0.02985   0.83828   0.28105   1.000
    Br2     Br   0.02123   0.79980   0.50922   1.000
    Cl2     Cl   0.01980   0.79960   0.50760   1.000
    S3      S    0.21042   0.47954   0.52027   1.000
    O9      O    0.08636   0.64610   0.30198   1.000
    O10     O    0.07628   0.27122   0.21078   1.000
    C13     C    0.34937   0.49740   0.64180   1.000
    O11     O    0.33047   0.40141   0.67836   1.000
    O12     O    0.41823   0.53942   0.66110   1.000
    O13     O    0.08468   0.47314   0.35943   1.000
    C14     C    0.12928   0.31600   0.15140   1.000
    O14     O    0.12727   0.41749   0.12660   1.000
    C15     C    0.29123   0.55450   0.57000   1.000
    C16     C    0.18051   0.58970   0.44090   1.000
    C17     C    0.11251   0.57020   0.36500   1.000
    C18     C    0.29370   0.65920   0.52800   1.000
    H5      H    0.33400   0.71280   0.54650   1.000
    C19     C    0.19709   0.24920   0.10810   1.000
    S4      S    0.26761   0.31495   0.02505   1.000
    O15     O    0.44532   0.11472   0.94652   1.000
    O16     O    0.40519   0.28040   0.88225   1.000
    C20     C    0.39733   0.19660   0.94130   1.000
    C21     C    0.28830   0.10830   0.06710   1.000
    H6      H    0.31010   0.03500   0.06900   1.000
    C22     C    0.32386   0.19450   0.01210   1.000
    C23     C    0.22954   0.67940   0.45390   1.000
    H7      H    0.22170   0.74820   0.41730   1.000
    C24     C    0.21590   0.13990   0.12060   1.000
    H8      H    0.18340   0.08960   0.16140   1.000
    Nd3     Nd   0.52985   0.66173   0.71895   1.000
    Br3     Br   0.52123   0.70020   0.49078   1.000
    Cl3     Cl   0.51980   0.70040   0.49240   1.000
    S5      S    0.71042   0.02046   0.47973   1.000
    O17     O    0.58636   0.85390   0.69802   1.000
    O18     O    0.57628   0.22878   0.78922   1.000
    C25     C    0.84937   0.00260   0.35820   1.000
    O19     O    0.83047   0.09859   0.32164   1.000
    O20     O    0.91823   0.96058   0.33890   1.000
    O21     O    0.58468   0.02686   0.64057   1.000
    C26     C    0.62928   0.18400   0.84860   1.000
    O22     O    0.62727   0.08251   0.87340   1.000
    C27     C    0.79123   0.94550   0.43000   1.000
    C28     C    0.68051   0.91030   0.55910   1.000
    C29     C    0.61251   0.92980   0.63500   1.000
    C30     C    0.79370   0.84080   0.47200   1.000
    H9      H    0.83400   0.78720   0.45350   1.000
    C31     C    0.69709   0.25080   0.89190   1.000
    S6      S    0.76761   0.18505   0.97495   1.000
    O23     O    0.94532   0.38528   0.05348   1.000
    O24     O    0.90519   0.21960   0.11775   1.000
    C32     C    0.89733   0.30340   0.05870   1.000
    C33     C    0.78830   0.39170   0.93290   1.000
    H10     H    0.81010   0.46500   0.93100   1.000
    C34     C    0.82386   0.30550   0.98790   1.000
    C35     C    0.72954   0.82060   0.54610   1.000
    H11     H    0.72170   0.75180   0.58270   1.000
    C36     C    0.71590   0.36010   0.87940   1.000
    H12     H    0.68340   0.41040   0.83860   1.000
    Nd4     Nd   0.47015   0.33827   0.71895   1.000
    Br4     Br   0.47877   0.29980   0.49078   1.000
    Cl4     Cl   0.48020   0.29960   0.49240   1.000
    S7      S    0.28958   0.97954   0.47973   1.000
    O25     O    0.41364   0.14610   0.69802   1.000
    O26     O    0.42372   0.77122   0.78922   1.000
    C37     C    0.15063   0.99740   0.35820   1.000
    O27     O    0.16953   0.90141   0.32164   1.000
    O28     O    0.08177   0.03942   0.33890   1.000
    O29     O    0.41532   0.97314   0.64057   1.000
    C38     C    0.37072   0.81600   0.84860   1.000
    O30     O    0.37273   0.91749   0.87340   1.000
    C39     C    0.20877   0.05450   0.43000   1.000
    C40     C    0.31949   0.08970   0.55910   1.000
    C41     C    0.38749   0.07020   0.63500   1.000
    C42     C    0.20630   0.15920   0.47200   1.000
    H13     H    0.16600   0.21280   0.45350   1.000
    C43     C    0.30291   0.74920   0.89190   1.000
    S8      S    0.23239   0.81495   0.97495   1.000
    O31     O    0.05468   0.61472   0.05348   1.000
    O32     O    0.09481   0.78040   0.11775   1.000
    C44     C    0.10267   0.69660   0.05870   1.000
    C45     C    0.21170   0.60830   0.93290   1.000
    H14     H    0.18990   0.53500   0.93100   1.000
    C46     C    0.17614   0.69450   0.98790   1.000
    C47     C    0.27046   0.17940   0.54610   1.000
    H15     H    0.27830   0.24820   0.58270   1.000
    C48     C    0.28410   0.63990   0.87940   1.000
    H16     H    0.31660   0.58960   0.83860   1.000
    Nd5     Nd   0.00000   0.50000   0.19588   1.000
    Nd6     Nd   0.50000   0.00000   0.80412   1.000
    Cl5     Cl   0.00000   0.00000   0.11748   1.000
    Cl6     Cl   0.50000   0.50000   0.88252   1.000
