data_functionalizedCrystal
_audit_creation_method	'EQeq! by Chris Wilmer'
_symmetry_space_group_name_H-M	'P1'
_symmetry_Int_Tables_number	1
_symmetry_cell_setting	triclinic
loop_
_symmetry_equiv_pos_as_xyz
  x,y,z
_cell_length_a	8.668
_cell_length_b	17.558
_cell_length_c	9.186
_cell_angle_alpha	90
_cell_angle_beta	107.75
_cell_angle_gamma	90
loop_
_atom_site_label
_atom_site_type_symbol
_atom_site_fract_x
_atom_site_fract_y
_atom_site_fract_z
_atom_site_charge
Mof_Al	Al	0.0833	0.2973	0.285	7.081
Mof_Al	Al	0.1427	0.1113	0.1551	7.114
Mof_Al	Al	0.5358	0.3236	0.1804	7.086
Mof_P 	P 	0.3597	0.4258	0.3475	1.933
Mof_P 	P 	0.8164	0.2944	0.4654	1.779
Mof_P 	P 	0.2753	0.1695	0.4896	1.608
Mof_O 	O 	0.0483	0.2066	0.1808	-2.743
Mof_O 	O 	0.2035	0.3807	0.2934	-1.976
Mof_O 	O 	0.2517	0.2526	0.4383	-1.877
Mof_O 	O 	0.9526	0.3131	0.4006	-2.04
Mof_O 	O 	0.4393	0.1577	0.6092	-1.654
Mof_O 	O 	0.4652	0.4053	0.2459	-2.184
Mof_O 	O 	0.8646	0.2274	0.5761	-2.172
Mof_O 	O 	0.1414	0.1457	0.5587	-2.144
Mof_O 	O 	0.6631	0.2726	0.3343	-2.171
Mof_O 	O 	0.2658	0.1163	0.3555	-1.813
Mof_O 	O 	0.4517	0.4061	0.5114	-2.014
Mof_O 	O 	0.316	0.509	0.3272	-1.857
Mof_O 	O 	0.7795	0.3629	0.5504	-2.032
Mof_Al	Al	0.4167	0.7973	0.215	7.21
Mof_Al	Al	0.3573	0.6113	0.3449	7.278
Mof_Al	Al	0.9642	0.8236	0.3196	6.932
Mof_P 	P 	0.1403	0.9258	0.1525	1.894
Mof_P 	P 	0.6836	0.7944	0.0346	1.771
Mof_P 	P 	0.2247	0.6695	0.0104	1.59
Mof_O 	O 	0.4517	0.7066	0.3192	-2.774
Mof_O 	O 	0.2965	0.8807	0.2066	-1.988
Mof_O 	O 	0.2483	0.7526	0.0617	-1.9
Mof_O 	O 	0.5474	0.8131	0.0994	-2.088
Mof_O 	O 	0.0607	0.6577	0.8908	-1.601
Mof_O 	O 	0.0348	0.9053	0.2541	-2.127
Mof_O 	O 	0.6354	0.7274	0.9239	-2.214
Mof_O 	O 	0.3586	0.6457	0.9413	-2.158
Mof_O 	O 	0.8369	0.7726	0.1657	-2.149
Mof_O 	O 	0.2342	0.6163	0.1445	-1.843
Mof_O 	O 	0.0483	0.9061	0.9886	-1.923
Mof_O 	O 	0.184	0.009	0.1728	-1.834
Mof_O 	O 	0.7205	0.8629	0.9496	-2
Mof_Al	Al	0.9167	0.7027	0.715	7.081
Mof_Al	Al	0.8573	0.8887	0.8449	7.114
Mof_Al	Al	0.4642	0.6764	0.8196	7.086
Mof_P 	P 	0.6403	0.5742	0.6525	1.933
Mof_P 	P 	0.1836	0.7056	0.5346	1.779
Mof_P 	P 	0.7247	0.8305	0.5104	1.608
Mof_O 	O 	0.9517	0.7934	0.8192	-2.743
Mof_O 	O 	0.7965	0.6193	0.7066	-1.976
Mof_O 	O 	0.7483	0.7474	0.5617	-1.877
Mof_O 	O 	0.0474	0.6869	0.5994	-2.04
Mof_O 	O 	0.5607	0.8423	0.3908	-1.654
Mof_O 	O 	0.5348	0.5947	0.7541	-2.184
Mof_O 	O 	0.1354	0.7726	0.4239	-2.172
Mof_O 	O 	0.8586	0.8543	0.4413	-2.144
Mof_O 	O 	0.3369	0.7274	0.6657	-2.171
Mof_O 	O 	0.7342	0.8837	0.6445	-1.813
Mof_O 	O 	0.5483	0.5939	0.4886	-2.014
Mof_O 	O 	0.684	0.491	0.6728	-1.857
Mof_O 	O 	0.2205	0.6371	0.4496	-2.032
Mof_Al	Al	0.5833	0.2027	0.785	7.21
Mof_Al	Al	0.6427	0.3887	0.6551	7.278
Mof_Al	Al	0.0358	0.1764	0.6804	6.932
Mof_P 	P 	0.8597	0.0742	0.8475	1.894
Mof_P 	P 	0.3164	0.2056	0.9654	1.771
Mof_P 	P 	0.7753	0.3305	0.9896	1.59
Mof_O 	O 	0.5483	0.2934	0.6808	-2.774
Mof_O 	O 	0.7035	0.1193	0.7934	-1.988
Mof_O 	O 	0.7517	0.2474	0.9383	-1.9
Mof_O 	O 	0.4526	0.1869	0.9006	-2.088
Mof_O 	O 	0.9393	0.3423	0.1092	-1.601
Mof_O 	O 	0.9652	0.0947	0.7459	-2.127
Mof_O 	O 	0.3646	0.2726	0.0761	-2.214
Mof_O 	O 	0.6414	0.3543	0.0587	-2.158
Mof_O 	O 	0.1631	0.2274	0.8343	-2.149
Mof_O 	O 	0.7658	0.3837	0.8555	-1.843
Mof_O 	O 	0.9517	0.0939	0.0114	-1.923
Mof_O 	O 	0.816	0.991	0.8272	-1.834
Mof_O 	O 	0.2795	0.1371	0.0504	-2
_end
