# CIF file generated by openbabel 2.4.1, see http://openbabel.sf.net
data_I
_chemical_name_common 'QIFLIC_clean'
_cell_length_a 12.5223
_cell_length_b 12.5223
_cell_length_c 15.7383
_cell_angle_alpha 113.442
_cell_angle_beta 113.442
_cell_angle_gamma 90.0001
_space_group_name_H-M_alt 'P 1'
_space_group_name_Hall 'P 1'
loop_
    _symmetry_equiv_pos_as_xyz
    x,y,z
loop_
    _atom_site_label
    _atom_site_type_symbol
    _atom_site_fract_x
    _atom_site_fract_y
    _atom_site_fract_z
    _atom_site_occupancy
    Zn1     Zn   0.87509   0.39560   0.37492   1.000
    Zn2     Zn   0.49983   0.97932   0.37492   1.000
    Zn3     Zn   0.39560   0.49983   0.37492   1.000
    Zn4     Zn   0.97932   0.87509   0.37492   1.000
    Zn5     Zn   0.12491   0.60440   0.62508   1.000
    Zn6     Zn   0.50017   0.02068   0.62508   1.000
    Zn7     Zn   0.60440   0.50017   0.62508   1.000
    Zn8     Zn   0.02068   0.12491   0.62508   1.000
    H1      H    0.74900   0.99990   0.15460   1.000
    H2      H    0.91490   0.19330   0.44380   1.000
    H3      H    0.16460   0.38650   0.78800   1.000
    H4      H    0.18180   0.50730   0.78860   1.000
    H5      H    0.40560   0.15470   0.15460   1.000
    H6      H    0.52890   0.25050   0.44380   1.000
    H7      H    0.62340   0.40150   0.78800   1.000
    H8      H    0.60680   0.28130   0.78860   1.000
    H9      H    0.99990   0.40560   0.15460   1.000
    H10     H    0.19330   0.52890   0.44380   1.000
    H11     H    0.38650   0.62340   0.78800   1.000
    H12     H    0.50730   0.60680   0.78860   1.000
    H13     H    0.15470   0.74900   0.15460   1.000
    H14     H    0.25050   0.91490   0.44380   1.000
    H15     H    0.40150   0.16460   0.78800   1.000
    H16     H    0.28130   0.18180   0.78860   1.000
    H17     H    0.25100   0.00010   0.84540   1.000
    H18     H    0.08510   0.80670   0.55620   1.000
    H19     H    0.83540   0.61350   0.21200   1.000
    H20     H    0.81820   0.49270   0.21140   1.000
    H21     H    0.59440   0.84530   0.84540   1.000
    H22     H    0.47110   0.74950   0.55620   1.000
    H23     H    0.37660   0.59850   0.21200   1.000
    H24     H    0.39320   0.71870   0.21140   1.000
    H25     H    0.00010   0.59440   0.84540   1.000
    H26     H    0.80670   0.47110   0.55620   1.000
    H27     H    0.61350   0.37660   0.21200   1.000
    H28     H    0.49270   0.39320   0.21140   1.000
    H29     H    0.84530   0.25100   0.84540   1.000
    H30     H    0.74950   0.08510   0.55620   1.000
    H31     H    0.59850   0.83540   0.21200   1.000
    H32     H    0.71870   0.81820   0.21140   1.000
    H33     H    0.64480   0.83140   0.00000   1.000
    H34     H    0.68050   0.20190   0.00000   1.000
    H35     H    0.35520   0.16860   0.00000   1.000
    H36     H    0.31950   0.79810   0.00000   1.000
    H37     H    0.83140   0.35520   0.00000   1.000
    H38     H    0.20190   0.31950   0.00000   1.000
    H39     H    0.16860   0.64480   0.00000   1.000
    H40     H    0.79810   0.68050   0.00000   1.000
    C1      C    0.72245   0.11635   0.09290   1.000
    C2      C    0.71500   0.00680   0.09160   1.000
    C3      C    0.07630   0.38490   0.65420   1.000
    C4      C    0.96215   0.26435   0.50210   1.000
    C5      C    0.77890   0.24260   0.18720   1.000
    C6      C    0.37045   0.97655   0.09290   1.000
    C7      C    0.37660   0.08480   0.09160   1.000
    C8      C    0.57790   0.26930   0.65420   1.000
    C9      C    0.53995   0.23775   0.50210   1.000
    C10     C    0.40830   0.94460   0.18720   1.000
    C11     C    0.11635   0.37045   0.09290   1.000
    C12     C    0.00680   0.37660   0.09160   1.000
    C13     C    0.38490   0.57790   0.65420   1.000
    C14     C    0.26435   0.53995   0.50210   1.000
    C15     C    0.24260   0.40830   0.18720   1.000
    C16     C    0.97655   0.72245   0.09290   1.000
    C17     C    0.08480   0.71500   0.09160   1.000
    C18     C    0.26930   0.07630   0.65420   1.000
    C19     C    0.23775   0.96215   0.50210   1.000
    C20     C    0.94460   0.77890   0.18720   1.000
    C21     C    0.27755   0.88365   0.90710   1.000
    C22     C    0.28500   0.99320   0.90840   1.000
    C23     C    0.92370   0.61510   0.34580   1.000
    C24     C    0.03785   0.73565   0.49790   1.000
    C25     C    0.22110   0.75740   0.81280   1.000
    C26     C    0.62955   0.02345   0.90710   1.000
    C27     C    0.62340   0.91520   0.90840   1.000
    C28     C    0.42210   0.73070   0.34580   1.000
    C29     C    0.46005   0.76225   0.49790   1.000
    C30     C    0.59170   0.05540   0.81280   1.000
    C31     C    0.88365   0.62955   0.90710   1.000
    C32     C    0.99320   0.62340   0.90840   1.000
    C33     C    0.61510   0.42210   0.34580   1.000
    C34     C    0.73565   0.46005   0.49790   1.000
    C35     C    0.75740   0.59170   0.81280   1.000
    C36     C    0.02345   0.27755   0.90710   1.000
    C37     C    0.91520   0.28500   0.90840   1.000
    C38     C    0.73070   0.92370   0.34580   1.000
    C39     C    0.76225   0.03785   0.49790   1.000
    C40     C    0.05540   0.22110   0.81280   1.000
    C41     C    0.65890   0.90600   0.00000   1.000
    C42     C    0.67790   0.12600   0.00000   1.000
    C43     C    0.34110   0.09400   0.00000   1.000
    C44     C    0.32210   0.87400   0.00000   1.000
    C45     C    0.90600   0.34110   0.00000   1.000
    C46     C    0.12600   0.32210   0.00000   1.000
    C47     C    0.09400   0.65890   0.00000   1.000
    C48     C    0.87400   0.67790   0.00000   1.000
    N1      N    0.97457   0.36517   0.49814   1.000
    N2      N    0.05010   0.44780   0.59900   1.000
    N3      N    0.02296   0.27066   0.59732   1.000
    N4      N    0.14934   0.43164   0.75528   1.000
    N5      N    0.52357   0.13297   0.49814   1.000
    N6      N    0.54890   0.15120   0.59900   1.000
    N7      N    0.57436   0.32666   0.59732   1.000
    N8      N    0.60594   0.32364   0.75528   1.000
    N9      N    0.36517   0.52357   0.49814   1.000
    N10     N    0.44780   0.54890   0.59900   1.000
    N11     N    0.27066   0.57436   0.59732   1.000
    N12     N    0.43164   0.60594   0.75528   1.000
    N13     N    0.13297   0.97457   0.49814   1.000
    N14     N    0.15120   0.05010   0.59900   1.000
    N15     N    0.32666   0.02296   0.59732   1.000
    N16     N    0.32364   0.14934   0.75528   1.000
    N17     N    0.02543   0.63483   0.50186   1.000
    N18     N    0.94990   0.55220   0.40100   1.000
    N19     N    0.97704   0.72934   0.40268   1.000
    N20     N    0.85066   0.56836   0.24472   1.000
    N21     N    0.47643   0.86703   0.50186   1.000
    N22     N    0.45110   0.84880   0.40100   1.000
    N23     N    0.42564   0.67334   0.40268   1.000
    N24     N    0.39406   0.67636   0.24472   1.000
    N25     N    0.63483   0.47643   0.50186   1.000
    N26     N    0.55220   0.45110   0.40100   1.000
    N27     N    0.72934   0.42564   0.40268   1.000
    N28     N    0.56836   0.39406   0.24472   1.000
    N29     N    0.86703   0.02543   0.50186   1.000
    N30     N    0.84880   0.94990   0.40100   1.000
    N31     N    0.67334   0.97704   0.40268   1.000
    N32     N    0.67636   0.85066   0.24472   1.000
    O1      O    0.75240   0.33780   0.18160   1.000
    O2      O    0.84290   0.23770   0.27140   1.000
    O3      O    0.42920   0.84380   0.18160   1.000
    O4      O    0.42850   0.03370   0.27140   1.000
    O5      O    0.33780   0.42920   0.18160   1.000
    O6      O    0.23770   0.42850   0.27140   1.000
    O7      O    0.84380   0.75240   0.18160   1.000
    O8      O    0.03370   0.84290   0.27140   1.000
    O9      O    0.24760   0.66220   0.81840   1.000
    O10     O    0.15710   0.76230   0.72860   1.000
    O11     O    0.57080   0.15620   0.81840   1.000
    O12     O    0.57150   0.96630   0.72860   1.000
    O13     O    0.66220   0.57080   0.81840   1.000
    O14     O    0.76230   0.57150   0.72860   1.000
    O15     O    0.15620   0.24760   0.81840   1.000
    O16     O    0.96630   0.15710   0.72860   1.000
