data_functionalizedCrystal
_audit_creation_method	'EQeq! by Chris Wilmer'
_symmetry_space_group_name_H-M	'P1'
_symmetry_Int_Tables_number	1
_symmetry_cell_setting	triclinic
loop_
_symmetry_equiv_pos_as_xyz
  x,y,z
_cell_length_a	17.5355
_cell_length_b	17.5355
_cell_length_c	17.5355
_cell_angle_alpha	90
_cell_angle_beta	90
_cell_angle_gamma	90
loop_
_atom_site_label
_atom_site_type_symbol
_atom_site_fract_x
_atom_site_fract_y
_atom_site_fract_z
_atom_site_charge
Mof_Cu	Cu	0.5	9.36324e-33	0.85617	0.912
Mof_Cu	Cu	1.25734e-32	0.5	0.85617	0.912
Mof_Cu	Cu	0.5	0.85617	-0	0.912
Mof_Cu	Cu	0.5	0	0.14383	0.886
Mof_Cu	Cu	0.85617	0	0.5	0.912
Mof_Cu	Cu	0.85617	0.5	-0	0.912
Mof_Cu	Cu	0.5	0.14383	-0	0.887
Mof_Cu	Cu	1.8747e-33	0.14383	0.5	0.887
Mof_Cu	Cu	0.14383	0	0.5	0.887
Mof_Cu	Cu	1.59196e-32	0.85617	0.5	0.913
Mof_Cu	Cu	0.14383	0.5	-0	0.887
Mof_Cu	Cu	1.70968e-33	0.5	0.14383	0.887
Mof_H 	H 	0.0878	0.6861	0.7486	1.556
Mof_H 	H 	0.4023	0.2634	0.0985	0.032
Mof_H 	H 	0.3139	0.7486	0.0878	1.554
Mof_H 	H 	0.3139	0.7486	0.9122	1.568
Mof_H 	H 	0.0985	0.5977	0.2634	0.033
Mof_H 	H 	0.8583	0.2433	0.7567	3.844
Mof_H 	H 	0.7486	0.0878	0.6861	1.556
Mof_H 	H 	0.0878	0.7486	0.6861	1.556
Mof_H 	H 	0.5977	0.9015	0.7366	0.061
Mof_H 	H 	0.9015	0.2634	0.4023	0.063
Mof_H 	H 	0.2634	0.9015	0.5977	0.064
Mof_H 	H 	0.5977	0.2634	0.0985	0.033
Mof_H 	H 	0.2514	0.6861	0.0878	1.548
Mof_H 	H 	0.7486	0.9122	0.3139	1.568
Mof_H 	H 	0.9015	0.7366	0.4023	0.06
Mof_H 	H 	0.3139	0.0878	0.7486	1.554
Mof_H 	H 	0.9015	0.7366	0.5977	0.061
Mof_H 	H 	0.2634	0.4023	0.9015	0.063
Mof_H 	H 	0.8583	0.7567	0.7567	3.863
Mof_H 	H 	0.7567	0.1417	0.2433	3.871
Mof_H 	H 	0.6861	0.9122	0.7486	1.57
Mof_H 	H 	0.0985	0.4023	0.2634	0.032
Mof_H 	H 	0.9015	0.2634	0.5977	0.064
Mof_H 	H 	0.2634	0.5977	0.9015	0.064
Mof_H 	H 	0.1417	0.2433	0.2433	3.852
Mof_H 	H 	0.4023	0.9015	0.7366	0.06
Mof_H 	H 	0.3139	0.2514	0.0878	1.546
Mof_H 	H 	0.2433	0.2433	0.1417	3.852
Mof_H 	H 	0.9122	0.2514	0.3139	1.559
Mof_H 	H 	0.2514	0.6861	0.9122	1.562
Mof_H 	H 	0.9015	0.4023	0.2634	0.063
Mof_H 	H 	0.9122	0.3139	0.2514	1.559
Mof_H 	H 	0.9122	0.6861	0.2514	1.562
Mof_H 	H 	0.7567	0.2433	0.8583	3.844
Mof_H 	H 	0.6861	0.7486	0.9122	1.57
Mof_H 	H 	0.7366	0.0985	0.5977	0.03
Mof_H 	H 	0.0878	0.2514	0.3139	1.546
Mof_H 	H 	0.7366	0.0985	0.4023	0.029
Mof_H 	H 	0.7486	0.0878	0.3139	1.554
Mof_H 	H 	0.2634	0.0985	0.4023	0.032
Mof_H 	H 	0.0985	0.7366	0.4023	0.029
Mof_H 	H 	0.6861	0.0878	0.7486	1.556
Mof_H 	H 	0.7366	0.4023	0.0985	0.029
Mof_H 	H 	0.2433	0.1417	0.2433	3.852
Mof_H 	H 	0.9122	0.7486	0.3139	1.568
Mof_H 	H 	0.2514	0.3139	0.9122	1.559
Mof_H 	H 	0.7567	0.7567	0.1417	3.89
Mof_H 	H 	0.9015	0.5977	0.2634	0.064
Mof_H 	H 	0.3139	0.2514	0.9122	1.559
Mof_H 	H 	0.2514	0.3139	0.0878	1.546
Mof_H 	H 	0.6861	0.0878	0.2514	1.548
Mof_H 	H 	0.4023	0.2634	0.9015	0.063
Mof_H 	H 	0.0878	0.2514	0.6861	1.548
Mof_H 	H 	0.2514	0.9122	0.6861	1.562
Mof_H 	H 	0.2634	0.9015	0.4023	0.063
Mof_H 	H 	0.2634	0.4023	0.0985	0.032
Mof_H 	H 	0.2514	0.0878	0.3139	1.546
Mof_H 	H 	0.7366	0.4023	0.9015	0.06
Mof_H 	H 	0.0878	0.3139	0.7486	1.554
Mof_H 	H 	0.0878	0.6861	0.2514	1.548
Mof_H 	H 	0.0985	0.7366	0.5977	0.03
Mof_H 	H 	0.7567	0.2433	0.1417	3.871
Mof_H 	H 	0.3139	0.9122	0.7486	1.568
Mof_H 	H 	0.9015	0.4023	0.7366	0.06
Mof_H 	H 	0.0985	0.5977	0.7366	0.03
Mof_H 	H 	0.7567	0.1417	0.7567	3.89
Mof_H 	H 	0.6861	0.2514	0.0878	1.548
Mof_H 	H 	0.7366	0.5977	0.0985	0.03
Mof_H 	H 	0.5977	0.9015	0.2634	0.064
Mof_H 	H 	0.3139	0.0878	0.2514	1.546
Mof_H 	H 	0.2433	0.1417	0.7567	3.871
Mof_H 	H 	0.8583	0.2433	0.2433	3.826
Mof_H 	H 	0.7486	0.6861	0.9122	1.57
Mof_H 	H 	0.0878	0.3139	0.2514	1.546
Mof_H 	H 	0.2634	0.5977	0.0985	0.033
Mof_H 	H 	0.0985	0.2634	0.4023	0.032
Mof_H 	H 	0.2514	0.9122	0.3139	1.559
Mof_H 	H 	0.4023	0.0985	0.7366	0.029
Mof_H 	H 	0.7366	0.5977	0.9015	0.061
Mof_H 	H 	0.7366	0.9015	0.4023	0.06
Mof_H 	H 	0.2433	0.8583	0.7567	3.844
Mof_H 	H 	0.4023	0.0985	0.2634	0.032
Mof_H 	H 	0.0985	0.2634	0.5977	0.033
Mof_H 	H 	0.1417	0.7567	0.2433	3.871
Mof_H 	H 	0.5977	0.0985	0.2634	0.033
Mof_H 	H 	0.7486	0.6861	0.0878	1.556
Mof_H 	H 	0.5977	0.0985	0.7366	0.03
Mof_H 	H 	0.0985	0.4023	0.7366	0.029
Mof_H 	H 	0.6861	0.9122	0.2514	1.562
Mof_H 	H 	0.1417	0.2433	0.7567	3.871
Mof_H 	H 	0.2514	0.0878	0.6861	1.548
Mof_H 	H 	0.4023	0.9015	0.2634	0.063
Mof_H 	H 	0.3139	0.9122	0.2514	1.559
Mof_H 	H 	0.9015	0.5977	0.7366	0.061
Mof_H 	H 	0.6861	0.7486	0.0878	1.556
Mof_H 	H 	0.7486	0.9122	0.6861	1.57
Mof_H 	H 	0.2433	0.7567	0.8583	3.844
Mof_H 	H 	0.9122	0.6861	0.7486	1.57
Mof_H 	H 	0.2433	0.7567	0.1417	3.871
Mof_H 	H 	0.9122	0.2514	0.6861	1.562
Mof_H 	H 	0.7366	0.9015	0.5977	0.061
Mof_H 	H 	0.8583	0.7567	0.2433	3.844
Mof_H 	H 	0.5977	0.7366	0.0985	0.03
Mof_H 	H 	0.4023	0.7366	0.9015	0.06
Mof_H 	H 	0.7567	0.8583	0.2433	3.844
Mof_H 	H 	0.7486	0.3139	0.0878	1.554
Mof_H 	H 	0.2433	0.8583	0.2433	3.826
Mof_H 	H 	0.5977	0.7366	0.9015	0.061
Mof_H 	H 	0.7567	0.7567	0.8583	3.863
Mof_H 	H 	0.0878	0.7486	0.3139	1.554
Mof_H 	H 	0.2433	0.2433	0.8583	3.826
Mof_H 	H 	0.2634	0.0985	0.5977	0.033
Mof_H 	H 	0.9122	0.7486	0.6861	1.57
Mof_H 	H 	0.7567	0.8583	0.7567	3.863
Mof_H 	H 	0.5977	0.2634	0.9015	0.064
Mof_H 	H 	0.9122	0.3139	0.7486	1.568
Mof_H 	H 	0.7486	0.3139	0.9122	1.568
Mof_H 	H 	0.1417	0.7567	0.7567	3.89
Mof_H 	H 	0.6861	0.2514	0.9122	1.562
Mof_H 	H 	0.4023	0.7366	0.0985	0.029
Mof_C 	C 	0.168	0.673	0.168	2.504
Mof_C 	C 	0.2294	0.1326	0.2915	-4.625
Mof_C 	C 	0.1892	0.224	0.776	-0.499
Mof_C 	C 	0.327	0.832	0.168	2.499
Mof_C 	C 	0.6023	0.1349	0.1349	-0.084
Mof_C 	C 	0.7706	0.2915	0.1326	-4.64
Mof_C 	C 	0.8651	0.3977	0.8651	-0.112
Mof_C 	C 	0.673	0.832	0.832	2.499
Mof_C 	C 	0.776	0.1892	0.776	-0.507
Mof_C 	C 	0.1349	0.8651	0.6023	-0.098
Mof_C 	C 	0.8108	0.776	0.776	-0.484
Mof_C 	C 	0.776	0.8108	0.224	-0.477
Mof_C 	C 	0.832	0.327	0.832	2.497
Mof_C 	C 	0.2233	0.7411	0.1616	0.126
Mof_C 	C 	0.832	0.168	0.327	2.499
Mof_C 	C 	0.7706	0.8674	0.7085	-4.625
Mof_C 	C 	0.8674	0.7706	0.2915	-4.623
Mof_C 	C 	0.168	0.832	0.327	2.499
Mof_C 	C 	0.6664	0.815	0.8554	0.783
Mof_C 	C 	0.1446	0.6664	0.185	0.784
Mof_C 	C 	0.7411	0.1616	0.2233	0.126
Mof_C 	C 	0.168	0.673	0.832	2.501
Mof_C 	C 	0.8651	0.1349	0.3977	-0.098
Mof_C 	C 	0.1349	0.3977	0.8651	-0.098
Mof_C 	C 	0.2233	0.7411	0.8384	0.135
Mof_C 	C 	0.776	0.1892	0.224	-0.499
Mof_C 	C 	0.6023	0.8651	0.1349	-0.098
Mof_C 	C 	0.6023	0.8651	0.8651	-0.111
Mof_C 	C 	0.2294	0.7085	0.8674	-4.61
Mof_C 	C 	0.3977	0.8651	0.8651	-0.112
Mof_C 	C 	0.8674	0.2915	0.2294	-4.608
Mof_C 	C 	0.1892	0.224	0.224	-0.492
Mof_C 	C 	0.7706	0.7085	0.8674	-4.625
Mof_C 	C 	0.7085	0.7706	0.1326	-4.642
Mof_C 	C 	0.2915	0.2294	0.8674	-4.608
Mof_C 	C 	0.1326	0.7706	0.7085	-4.642
Mof_C 	C 	0.7085	0.1326	0.7706	-4.642
Mof_C 	C 	0.1349	0.1349	0.3977	-0.085
Mof_C 	C 	0.7767	0.2589	0.1616	0.134
Mof_C 	C 	0.8384	0.2233	0.2589	0.144
Mof_C 	C 	0.7085	0.8674	0.2294	-4.61
Mof_C 	C 	0.7767	0.8384	0.7411	0.135
Mof_C 	C 	0.2233	0.1616	0.2589	0.135
Mof_C 	C 	0.1349	0.8651	0.3977	-0.098
Mof_C 	C 	0.224	0.776	0.1892	-0.499
Mof_C 	C 	0.8384	0.2233	0.7411	0.135
Mof_C 	C 	0.8651	0.1349	0.6023	-0.098
Mof_C 	C 	0.7767	0.2589	0.8384	0.143
Mof_C 	C 	0.7085	0.7706	0.8674	-4.625
Mof_C 	C 	0.1892	0.776	0.224	-0.499
Mof_C 	C 	0.2294	0.1326	0.7085	-4.627
Mof_C 	C 	0.6664	0.8554	0.815	0.783
Mof_C 	C 	0.224	0.224	0.1892	-0.492
Mof_C 	C 	0.3336	0.8554	0.185	0.776
Mof_C 	C 	0.776	0.8108	0.776	-0.484
Mof_C 	C 	0.2915	0.2294	0.1326	-4.625
Mof_C 	C 	0.6664	0.815	0.1446	0.788
Mof_C 	C 	0.8108	0.224	0.224	-0.47
Mof_C 	C 	0.2294	0.8674	0.2915	-4.608
Mof_C 	C 	0.224	0.8108	0.224	-0.47
Mof_C 	C 	0.7767	0.1616	0.7411	0.125
Mof_C 	C 	0.7767	0.1616	0.2589	0.134
Mof_C 	C 	0.2915	0.1326	0.7706	-4.64
Mof_C 	C 	0.7085	0.1326	0.2294	-4.627
Mof_C 	C 	0.815	0.6664	0.8554	0.783
Mof_C 	C 	0.1616	0.7767	0.7411	0.125
Mof_C 	C 	0.8554	0.815	0.6664	0.783
Mof_C 	C 	0.8651	0.8651	0.6023	-0.111
Mof_C 	C 	0.8674	0.2294	0.7085	-4.61
Mof_C 	C 	0.1446	0.3336	0.185	0.781
Mof_C 	C 	0.224	0.1892	0.224	-0.492
Mof_C 	C 	0.7411	0.1616	0.7767	0.125
Mof_C 	C 	0.3336	0.185	0.8554	0.776
Mof_C 	C 	0.1326	0.2294	0.2915	-4.625
Mof_C 	C 	0.7706	0.7085	0.1326	-4.642
Mof_C 	C 	0.815	0.8554	0.3336	0.78
Mof_C 	C 	0.2233	0.1616	0.7411	0.126
Mof_C 	C 	0.815	0.1446	0.6664	0.788
Mof_C 	C 	0.1616	0.2233	0.7411	0.126
Mof_C 	C 	0.2294	0.7085	0.1326	-4.627
Mof_C 	C 	0.776	0.776	0.1892	-0.507
Mof_C 	C 	0.2589	0.1616	0.2233	0.135
Mof_C 	C 	0.185	0.6664	0.1446	0.784
Mof_C 	C 	0.8651	0.6023	0.1349	-0.098
Mof_C 	C 	0.7767	0.7411	0.1616	0.125
Mof_C 	C 	0.8674	0.2915	0.7706	-4.623
Mof_C 	C 	0.8554	0.185	0.3336	0.776
Mof_C 	C 	0.3977	0.1349	0.8651	-0.098
Mof_C 	C 	0.832	0.832	0.673	2.499
Mof_C 	C 	0.1892	0.776	0.776	-0.507
Mof_C 	C 	0.2589	0.2233	0.8384	0.144
Mof_C 	C 	0.2233	0.2589	0.1616	0.135
Mof_C 	C 	0.6664	0.185	0.1446	0.784
Mof_C 	C 	0.3336	0.185	0.1446	0.781
Mof_C 	C 	0.7411	0.8384	0.7767	0.135
Mof_C 	C 	0.1349	0.1349	0.6023	-0.084
Mof_C 	C 	0.224	0.8108	0.776	-0.477
Mof_C 	C 	0.2589	0.8384	0.2233	0.144
Mof_C 	C 	0.7767	0.7411	0.8384	0.135
Mof_C 	C 	0.185	0.8554	0.3336	0.776
Mof_C 	C 	0.1446	0.3336	0.815	0.784
Mof_C 	C 	0.1616	0.7411	0.7767	0.125
Mof_C 	C 	0.1446	0.185	0.3336	0.781
Mof_C 	C 	0.8384	0.7767	0.7411	0.135
Mof_C 	C 	0.1326	0.2915	0.2294	-4.625
Mof_C 	C 	0.1616	0.2589	0.7767	0.134
Mof_C 	C 	0.1326	0.2294	0.7085	-4.627
Mof_C 	C 	0.185	0.1446	0.3336	0.781
Mof_C 	C 	0.815	0.1446	0.3336	0.784
Mof_C 	C 	0.7411	0.2233	0.8384	0.135
Mof_C 	C 	0.7706	0.2915	0.8674	-4.623
Mof_C 	C 	0.185	0.6664	0.8554	0.779
Mof_C 	C 	0.1326	0.7085	0.2294	-4.627
Mof_C 	C 	0.8554	0.3336	0.815	0.78
Mof_C 	C 	0.6664	0.8554	0.185	0.779
Mof_C 	C 	0.3336	0.1446	0.815	0.784
Mof_C 	C 	0.832	0.168	0.673	2.501
Mof_C 	C 	0.8108	0.224	0.776	-0.477
Mof_C 	C 	0.2589	0.7767	0.1616	0.134
Mof_C 	C 	0.8384	0.7411	0.7767	0.135
Mof_C 	C 	0.3336	0.8554	0.815	0.78
Mof_C 	C 	0.7411	0.2233	0.1616	0.126
Mof_C 	C 	0.7706	0.1326	0.7085	-4.642
Mof_C 	C 	0.224	0.776	0.8108	-0.477
Mof_C 	C 	0.185	0.8554	0.6664	0.779
Mof_C 	C 	0.8651	0.3977	0.1349	-0.098
Mof_C 	C 	0.8674	0.7085	0.2294	-4.61
Mof_C 	C 	0.8384	0.2589	0.7767	0.143
Mof_C 	C 	0.2233	0.8384	0.7411	0.135
Mof_C 	C 	0.832	0.673	0.168	2.501
Mof_C 	C 	0.2915	0.8674	0.7706	-4.623
Mof_C 	C 	0.3977	0.8651	0.1349	-0.098
Mof_C 	C 	0.224	0.224	0.8108	-0.47
Mof_C 	C 	0.327	0.168	0.832	2.499
Mof_C 	C 	0.7085	0.2294	0.8674	-4.61
Mof_C 	C 	0.8554	0.3336	0.185	0.776
Mof_C 	C 	0.2589	0.7767	0.8384	0.143
Mof_C 	C 	0.2294	0.8674	0.7085	-4.61
Mof_C 	C 	0.168	0.168	0.327	2.501
Mof_C 	C 	0.673	0.168	0.168	2.504
Mof_C 	C 	0.7411	0.7767	0.8384	0.135
Mof_C 	C 	0.832	0.327	0.168	2.499
Mof_C 	C 	0.3336	0.1446	0.185	0.781
Mof_C 	C 	0.1446	0.185	0.6664	0.784
Mof_C 	C 	0.673	0.168	0.832	2.501
Mof_C 	C 	0.8384	0.7767	0.2589	0.143
Mof_C 	C 	0.815	0.3336	0.8554	0.78
Mof_C 	C 	0.7706	0.1326	0.2915	-4.64
Mof_C 	C 	0.776	0.224	0.1892	-0.499
Mof_C 	C 	0.185	0.3336	0.1446	0.781
Mof_C 	C 	0.3336	0.815	0.8554	0.78
Mof_C 	C 	0.1349	0.6023	0.1349	-0.084
Mof_C 	C 	0.168	0.832	0.673	2.501
Mof_C 	C 	0.2294	0.2915	0.8674	-4.608
Mof_C 	C 	0.2294	0.2915	0.1326	-4.625
Mof_C 	C 	0.8554	0.815	0.3336	0.78
Mof_C 	C 	0.2915	0.1326	0.2294	-4.625
Mof_C 	C 	0.185	0.1446	0.6664	0.784
Mof_C 	C 	0.1349	0.6023	0.8651	-0.098
Mof_C 	C 	0.3977	0.1349	0.1349	-0.085
Mof_C 	C 	0.1616	0.2233	0.2589	0.135
Mof_C 	C 	0.8554	0.185	0.6664	0.779
Mof_C 	C 	0.1349	0.3977	0.1349	-0.085
Mof_C 	C 	0.1446	0.6664	0.815	0.788
Mof_C 	C 	0.185	0.3336	0.8554	0.776
Mof_C 	C 	0.8384	0.2589	0.2233	0.144
Mof_C 	C 	0.8674	0.2294	0.2915	-4.608
Mof_C 	C 	0.815	0.3336	0.1446	0.784
Mof_C 	C 	0.6023	0.1349	0.8651	-0.098
Mof_C 	C 	0.7085	0.8674	0.7706	-4.625
Mof_C 	C 	0.776	0.224	0.8108	-0.477
Mof_C 	C 	0.168	0.327	0.832	2.499
Mof_C 	C 	0.8384	0.7411	0.2233	0.135
Mof_C 	C 	0.224	0.1892	0.776	-0.499
Mof_C 	C 	0.815	0.6664	0.1446	0.788
Mof_C 	C 	0.8108	0.776	0.224	-0.477
Mof_C 	C 	0.8674	0.7085	0.7706	-4.625
Mof_C 	C 	0.7085	0.2294	0.1326	-4.627
Mof_C 	C 	0.8651	0.6023	0.8651	-0.111
Mof_C 	C 	0.1326	0.2915	0.7706	-4.64
Mof_C 	C 	0.1326	0.7706	0.2915	-4.64
Mof_C 	C 	0.1616	0.2589	0.2233	0.135
Mof_C 	C 	0.1616	0.7411	0.2233	0.126
Mof_C 	C 	0.776	0.776	0.8108	-0.484
Mof_C 	C 	0.673	0.832	0.168	2.501
Mof_C 	C 	0.2589	0.2233	0.1616	0.135
Mof_C 	C 	0.832	0.832	0.327	2.497
Mof_C 	C 	0.1446	0.815	0.6664	0.788
Mof_C 	C 	0.7767	0.8384	0.2589	0.143
Mof_C 	C 	0.327	0.832	0.832	2.497
Mof_C 	C 	0.8554	0.6664	0.815	0.783
Mof_C 	C 	0.2233	0.2589	0.8384	0.144
Mof_C 	C 	0.6664	0.1446	0.815	0.788
Mof_C 	C 	0.7411	0.8384	0.2233	0.135
Mof_C 	C 	0.6664	0.185	0.8554	0.779
Mof_C 	C 	0.1616	0.7767	0.2589	0.134
Mof_C 	C 	0.815	0.8554	0.6664	0.783
Mof_C 	C 	0.8651	0.8651	0.3977	-0.112
Mof_C 	C 	0.2915	0.8674	0.2294	-4.608
Mof_C 	C 	0.1326	0.7085	0.7706	-4.642
Mof_C 	C 	0.3336	0.815	0.1446	0.784
Mof_C 	C 	0.1446	0.815	0.3336	0.784
Mof_C 	C 	0.7706	0.8674	0.2915	-4.623
Mof_C 	C 	0.2589	0.1616	0.7767	0.134
Mof_C 	C 	0.327	0.168	0.168	2.501
Mof_C 	C 	0.6664	0.1446	0.185	0.784
Mof_C 	C 	0.2915	0.7706	0.8674	-4.623
Mof_C 	C 	0.8674	0.7706	0.7085	-4.625
Mof_C 	C 	0.168	0.327	0.168	2.501
Mof_C 	C 	0.832	0.673	0.832	2.499
Mof_C 	C 	0.2915	0.7706	0.1326	-4.64
Mof_C 	C 	0.8554	0.6664	0.185	0.779
Mof_C 	C 	0.2233	0.8384	0.2589	0.144
Mof_C 	C 	0.168	0.168	0.673	2.504
Mof_C 	C 	0.2589	0.8384	0.7767	0.143
Mof_C 	C 	0.7411	0.7767	0.1616	0.125
Mof_N 	N 	0.1153	0.2151	0.6027	0.033
Mof_N 	N 	0.8847	0.7849	0.3973	0.01
Mof_N 	N 	0.8374	0.4525	0.8855	-0.127
Mof_N 	N 	0.1443	0.5768	0.0989	0.364
Mof_N 	N 	0.0989	0.1443	0.4232	0.364
Mof_N 	N 	0.161	0.8873	0.65	-0.836
Mof_N 	N 	0.4232	0.0989	0.1443	0.364
Mof_N 	N 	0.2151	0.1153	0.6027	0.033
Mof_N 	N 	0.4525	0.1145	0.1626	-0.122
Mof_N 	N 	0.4525	0.1626	0.8855	-0.11
Mof_N 	N 	0.5475	0.1145	0.8374	-0.14
Mof_N 	N 	0.1443	0.4232	0.0989	0.364
Mof_N 	N 	0.4232	0.8557	0.0989	0.531
Mof_N 	N 	0.161	0.1127	0.65	-0.859
Mof_N 	N 	0.1443	0.0989	0.5768	0.364
Mof_N 	N 	0.1127	0.839	0.35	-0.855
Mof_N 	N 	0.1626	0.1145	0.4525	-0.122
Mof_N 	N 	0.65	0.1127	0.839	-0.855
Mof_N 	N 	0.3973	0.8847	0.2151	-0.039
Mof_N 	N 	0.65	0.839	0.1127	-0.855
Mof_N 	N 	0.3973	0.2151	0.8847	-0.039
Mof_N 	N 	0.839	0.1127	0.65	-0.855
Mof_N 	N 	0.0989	0.1443	0.5768	0.364
Mof_N 	N 	0.4232	0.1443	0.0989	0.364
Mof_N 	N 	0.6027	0.7849	0.1153	0.082
Mof_N 	N 	0.8847	0.2151	0.6027	-0.041
Mof_N 	N 	0.5475	0.1626	0.8855	-0.11
Mof_N 	N 	0.5768	0.9011	0.8557	0.361
Mof_N 	N 	0.8855	0.1626	0.5475	-0.11
Mof_N 	N 	0.3973	0.1153	0.7849	0.083
Mof_N 	N 	0.5768	0.1443	0.0989	0.364
Mof_N 	N 	0.9011	0.8557	0.4232	0.362
Mof_N 	N 	0.5768	0.8557	0.0989	0.532
Mof_N 	N 	0.4232	0.8557	0.9011	0.362
Mof_N 	N 	0.8374	0.1145	0.4525	-0.139
Mof_N 	N 	0.8855	0.8374	0.5475	-0.127
Mof_N 	N 	0.6027	0.1153	0.2151	0.033
Mof_N 	N 	0.0989	0.5768	0.8557	0.532
Mof_N 	N 	0.5768	0.0989	0.1443	0.364
Mof_N 	N 	0.3973	0.7849	0.8847	0.01
Mof_N 	N 	0.8374	0.1145	0.5475	-0.14
Mof_N 	N 	0.0989	0.4232	0.8557	0.531
Mof_N 	N 	0.7849	0.3973	0.8847	0.01
Mof_N 	N 	0.8873	0.161	0.65	-0.836
Mof_N 	N 	0.2151	0.8847	0.6027	-0.041
Mof_N 	N 	0.6027	0.2151	0.8847	-0.041
Mof_N 	N 	0.8847	0.3973	0.7849	0.01
Mof_N 	N 	0.4525	0.1626	0.1145	-0.122
Mof_N 	N 	0.1153	0.7849	0.6027	0.082
Mof_N 	N 	0.9011	0.5768	0.8557	0.361
Mof_N 	N 	0.2151	0.6027	0.1153	0.033
Mof_N 	N 	0.5475	0.1145	0.1626	-0.123
Mof_N 	N 	0.1443	0.0989	0.4232	0.364
Mof_N 	N 	0.6027	0.8847	0.7849	0.008
Mof_N 	N 	0.6027	0.1153	0.7849	0.082
Mof_N 	N 	0.8847	0.3973	0.2151	-0.039
Mof_N 	N 	0.8374	0.5475	0.1145	-0.14
Mof_N 	N 	0.8847	0.6027	0.7849	0.008
Mof_N 	N 	0.4525	0.1145	0.8374	-0.139
Mof_N 	N 	0.5768	0.1443	0.9011	0.193
Mof_N 	N 	0.9011	0.4232	0.8557	0.362
Mof_N 	N 	0.5475	0.8374	0.8855	-0.127
Mof_N 	N 	0.7849	0.6027	0.8847	0.008
Mof_N 	N 	0.1127	0.839	0.65	-0.855
Mof_N 	N 	0.8873	0.839	0.35	-0.831
Mof_N 	N 	0.1153	0.7849	0.3973	0.083
Mof_N 	N 	0.35	0.839	0.8873	-0.831
Mof_N 	N 	0.7849	0.1153	0.6027	0.082
Mof_N 	N 	0.1443	0.5768	0.9011	0.193
Mof_N 	N 	0.9011	0.8557	0.5768	0.361
Mof_N 	N 	0.7849	0.6027	0.1153	0.082
Mof_N 	N 	0.8374	0.4525	0.1145	-0.139
Mof_N 	N 	0.1153	0.3973	0.2151	0.034
Mof_N 	N 	0.4525	0.8855	0.8374	-0.127
Mof_N 	N 	0.8557	0.5768	0.0989	0.532
Mof_N 	N 	0.2151	0.3973	0.8847	-0.039
Mof_N 	N 	0.9011	0.1443	0.5768	0.193
Mof_N 	N 	0.8873	0.35	0.161	-0.835
Mof_N 	N 	0.1145	0.1626	0.5475	-0.123
Mof_N 	N 	0.4232	0.9011	0.1443	0.195
Mof_N 	N 	0.839	0.1127	0.35	-0.855
Mof_N 	N 	0.35	0.161	0.8873	-0.835
Mof_N 	N 	0.2151	0.8847	0.3973	-0.039
Mof_N 	N 	0.8855	0.5475	0.1626	-0.11
Mof_N 	N 	0.7849	0.8847	0.3973	0.01
Mof_N 	N 	0.1145	0.5475	0.8374	-0.14
Mof_N 	N 	0.8847	0.7849	0.6027	0.008
Mof_N 	N 	0.1626	0.5475	0.1145	-0.123
Mof_N 	N 	0.5475	0.1626	0.1145	-0.123
Mof_N 	N 	0.2151	0.3973	0.1153	0.034
Mof_N 	N 	0.4232	0.9011	0.8557	0.362
Mof_N 	N 	0.8873	0.161	0.35	-0.835
Mof_N 	N 	0.161	0.65	0.1127	-0.859
Mof_N 	N 	0.4525	0.8374	0.1145	-0.139
Mof_N 	N 	0.1145	0.1626	0.4525	-0.122
Mof_N 	N 	0.839	0.35	0.8873	-0.831
Mof_N 	N 	0.1127	0.65	0.161	-0.859
Mof_N 	N 	0.7849	0.8847	0.6027	0.008
Mof_N 	N 	0.8557	0.0989	0.5768	0.532
Mof_N 	N 	0.3973	0.8847	0.7849	0.01
Mof_N 	N 	0.839	0.35	0.1127	-0.855
Mof_N 	N 	0.8855	0.1626	0.4525	-0.11
Mof_N 	N 	0.35	0.161	0.1127	-0.859
Mof_N 	N 	0.65	0.161	0.1127	-0.859
Mof_N 	N 	0.4525	0.8374	0.8855	-0.127
Mof_N 	N 	0.2151	0.6027	0.8847	-0.041
Mof_N 	N 	0.1127	0.161	0.65	-0.859
Mof_N 	N 	0.8873	0.839	0.65	-0.831
Mof_N 	N 	0.1153	0.2151	0.3973	0.034
Mof_N 	N 	0.0989	0.8557	0.5768	0.532
Mof_N 	N 	0.161	0.8873	0.35	-0.835
Mof_N 	N 	0.3973	0.1153	0.2151	0.034
Mof_N 	N 	0.5475	0.8855	0.1626	-0.11
Mof_N 	N 	0.9011	0.4232	0.1443	0.195
Mof_N 	N 	0.8557	0.0989	0.4232	0.531
Mof_N 	N 	0.8855	0.4525	0.8374	-0.127
Mof_N 	N 	0.8557	0.9011	0.4232	0.362
Mof_N 	N 	0.6027	0.2151	0.1153	0.033
Mof_N 	N 	0.839	0.8873	0.65	-0.831
Mof_N 	N 	0.1145	0.4525	0.8374	-0.139
Mof_N 	N 	0.8557	0.4232	0.9011	0.362
Mof_N 	N 	0.8873	0.65	0.839	-0.831
Mof_N 	N 	0.1443	0.4232	0.9011	0.195
Mof_N 	N 	0.1443	0.9011	0.5768	0.193
Mof_N 	N 	0.5768	0.0989	0.8557	0.532
Mof_N 	N 	0.8873	0.65	0.161	-0.836
Mof_N 	N 	0.35	0.1127	0.161	-0.859
Mof_N 	N 	0.3973	0.2151	0.1153	0.034
Mof_N 	N 	0.6027	0.8847	0.2151	-0.041
Mof_N 	N 	0.5768	0.9011	0.1443	0.193
Mof_N 	N 	0.1153	0.3973	0.7849	0.083
Mof_N 	N 	0.9011	0.5768	0.1443	0.193
Mof_N 	N 	0.6027	0.7849	0.8847	0.008
Mof_N 	N 	0.839	0.65	0.1127	-0.855
Mof_N 	N 	0.7849	0.3973	0.1153	0.083
Mof_N 	N 	0.1145	0.8374	0.5475	-0.14
Mof_N 	N 	0.8374	0.5475	0.8855	-0.127
Mof_N 	N 	0.3973	0.7849	0.1153	0.083
Mof_N 	N 	0.1443	0.9011	0.4232	0.195
Mof_N 	N 	0.1626	0.1145	0.5475	-0.123
Mof_N 	N 	0.1145	0.8374	0.4525	-0.139
Mof_N 	N 	0.8847	0.2151	0.3973	-0.039
Mof_N 	N 	0.5475	0.8374	0.1145	-0.14
Mof_N 	N 	0.1626	0.5475	0.8855	-0.11
Mof_N 	N 	0.839	0.65	0.8873	-0.831
Mof_N 	N 	0.161	0.1127	0.35	-0.859
Mof_N 	N 	0.1153	0.6027	0.2151	0.033
Mof_N 	N 	0.1626	0.8855	0.4525	-0.11
Mof_N 	N 	0.8847	0.6027	0.2151	-0.041
Mof_N 	N 	0.0989	0.8557	0.4232	0.531
Mof_N 	N 	0.35	0.8873	0.161	-0.835
Mof_N 	N 	0.1626	0.8855	0.5475	-0.11
Mof_N 	N 	0.5475	0.8855	0.8374	-0.127
Mof_N 	N 	0.1145	0.4525	0.1626	-0.122
Mof_N 	N 	0.8855	0.8374	0.4525	-0.127
Mof_N 	N 	0.8374	0.8855	0.5475	-0.127
Mof_N 	N 	0.8855	0.4525	0.1626	-0.11
Mof_N 	N 	0.4232	0.1443	0.9011	0.195
Mof_N 	N 	0.0989	0.5768	0.1443	0.364
Mof_N 	N 	0.65	0.8873	0.161	-0.836
Mof_N 	N 	0.7849	0.1153	0.3973	0.083
Mof_N 	N 	0.5768	0.8557	0.9011	0.361
Mof_N 	N 	0.1626	0.4525	0.1145	-0.122
Mof_N 	N 	0.1145	0.5475	0.1626	-0.123
Mof_N 	N 	0.8557	0.5768	0.9011	0.361
Mof_N 	N 	0.4232	0.0989	0.8557	0.531
Mof_N 	N 	0.8557	0.9011	0.5768	0.361
Mof_N 	N 	0.1153	0.6027	0.7849	0.082
Mof_N 	N 	0.8855	0.5475	0.8374	-0.127
Mof_N 	N 	0.35	0.839	0.1127	-0.855
Mof_N 	N 	0.1127	0.35	0.839	-0.855
Mof_N 	N 	0.4525	0.8855	0.1626	-0.11
Mof_N 	N 	0.1127	0.35	0.161	-0.859
Mof_N 	N 	0.35	0.1127	0.839	-0.855
Mof_N 	N 	0.65	0.8873	0.839	-0.831
Mof_N 	N 	0.1626	0.4525	0.8855	-0.11
Mof_N 	N 	0.9011	0.1443	0.4232	0.195
Mof_N 	N 	0.161	0.35	0.1127	-0.859
Mof_N 	N 	0.8557	0.4232	0.0989	0.531
Mof_N 	N 	0.0989	0.4232	0.1443	0.364
Mof_N 	N 	0.8374	0.8855	0.4525	-0.127
Mof_N 	N 	0.839	0.8873	0.35	-0.831
Mof_N 	N 	0.1127	0.161	0.35	-0.859
Mof_N 	N 	0.2151	0.1153	0.3973	0.034
Mof_N 	N 	0.1127	0.65	0.839	-0.855
Mof_N 	N 	0.8873	0.35	0.839	-0.831
Mof_N 	N 	0.65	0.1127	0.161	-0.859
Mof_N 	N 	0.35	0.8873	0.839	-0.831
Mof_N 	N 	0.65	0.161	0.8873	-0.836
Mof_N 	N 	0.65	0.839	0.8873	-0.831
Mof_N 	N 	0.161	0.65	0.8873	-0.836
Mof_N 	N 	0.161	0.35	0.8873	-0.835
Mof_Cl	Cl	0.5	0	-0	-0.775
Mof_Cl	Cl	-0	0.5	-0	-0.775
Mof_Cl	Cl	1.8747e-33	0	0.5	-0.775
Mof_O 	O 	0.5778	0.1772	0.0833	-0.407
Mof_O 	O 	0.5778	0.0833	0.1772	-0.407
Mof_O 	O 	0.9167	0.8228	0.4222	-0.337
Mof_O 	O 	0.0833	0.5778	0.1772	-0.407
Mof_O 	O 	0.5778	0.1772	0.9167	-0.193
Mof_O 	O 	0.0833	0.4222	0.8228	-0.551
Mof_O 	O 	0.4222	0.8228	0.0833	-0.551
Mof_O 	O 	0.0833	0.1772	0.5778	-0.407
Mof_O 	O 	0.8228	0.5778	0.9167	-0.334
Mof_O 	O 	0.9167	0.8228	0.5778	-0.334
Mof_O 	O 	0.0833	0.1772	0.4222	-0.409
Mof_O 	O 	0.5778	0.0833	0.8228	-0.55
Mof_O 	O 	0.9167	0.5778	0.8228	-0.334
Mof_O 	O 	0.8228	0.0833	0.4222	-0.551
Mof_O 	O 	0.1772	0.5778	0.0833	-0.407
Mof_O 	O 	0.5778	0.9167	0.8228	-0.334
Mof_O 	O 	0.1772	0.0833	0.5778	-0.407
Mof_O 	O 	0.0833	0.8228	0.5778	-0.55
Mof_O 	O 	0.4222	0.1772	0.9167	-0.197
Mof_O 	O 	0.4222	0.8228	0.9167	-0.337
Mof_O 	O 	0.4222	0.1772	0.0833	-0.409
Mof_O 	O 	0.5778	0.8228	0.9167	-0.334
Mof_O 	O 	0.0833	0.4222	0.1772	-0.409
Mof_O 	O 	0.1772	0.9167	0.4222	-0.197
Mof_O 	O 	0.9167	0.4222	0.1772	-0.197
Mof_O 	O 	0.1772	0.0833	0.4222	-0.409
Mof_O 	O 	0.1772	0.5778	0.9167	-0.193
Mof_O 	O 	0.9167	0.1772	0.4222	-0.197
Mof_O 	O 	0.1772	0.9167	0.5778	-0.193
Mof_O 	O 	0.5778	0.8228	0.0833	-0.55
Mof_O 	O 	0.0833	0.5778	0.8228	-0.55
Mof_O 	O 	0.1772	0.4222	0.0833	-0.409
Mof_O 	O 	0.4222	0.0833	0.8228	-0.551
Mof_O 	O 	0.5778	0.9167	0.1772	-0.193
Mof_O 	O 	0.8228	0.4222	0.0833	-0.551
Mof_O 	O 	0.9167	0.5778	0.1772	-0.193
Mof_O 	O 	0.0833	0.8228	0.4222	-0.551
Mof_O 	O 	0.8228	0.4222	0.9167	-0.337
Mof_O 	O 	0.4222	0.9167	0.8228	-0.337
Mof_O 	O 	0.9167	0.4222	0.8228	-0.337
Mof_O 	O 	0.1772	0.4222	0.9167	-0.197
Mof_O 	O 	0.8228	0.9167	0.4222	-0.337
Mof_O 	O 	0.8228	0.5778	0.0833	-0.55
Mof_O 	O 	0.4222	0.0833	0.1772	-0.409
Mof_O 	O 	0.8228	0.0833	0.5778	-0.55
Mof_O 	O 	0.8228	0.9167	0.5778	-0.334
Mof_O 	O 	0.4222	0.9167	0.1772	-0.197
Mof_O 	O 	0.9167	0.1772	0.5778	-0.193
_end
