data_functionalizedCrystal
_audit_creation_method	'EQeq! by Chris Wilmer'
_symmetry_space_group_name_H-M	'P1'
_symmetry_Int_Tables_number	1
_symmetry_cell_setting	triclinic
loop_
_symmetry_equiv_pos_as_xyz
  x,y,z
_cell_length_a	22.5959
_cell_length_b	19.8166
_cell_length_c	19.817
_cell_angle_alpha	90
_cell_angle_beta	90
_cell_angle_gamma	90
loop_
_atom_site_label
_atom_site_type_symbol
_atom_site_fract_x
_atom_site_fract_y
_atom_site_fract_z
_atom_site_charge
Mof_Cu	Cu	0.80451	0.23051	0.76506	0.918
Mof_O 	O 	0.775	0.1388	0.7376	-0.463
Mof_O 	O 	0.6886	0.1722	0.7204	-0.512
Mof_O 	O 	0.5605	0.0581	0.5664	-0.408
Mof_O 	O 	0.8142	0.244	0.6724	-0.429
Mof_O 	O 	0.7279	0.2831	0.6437	-0.451
Mof_C 	C 	0.7028	0.0615	0.704	-0.297
Mof_C 	C 	0.6553	0.0597	0.6562	0.164
Mof_H 	H 	0.6416	0.1016	0.6389	-0.004
Mof_H 	H 	0.773	0.9589	0.803	0.083
Mof_H 	H 	0.7715	0.0396	0.805	0.087
Mof_H 	H 	0.8129	0.9985	0.7517	0.088
Mof_C 	C 	0.7236	0.1308	0.7201	0.56
Mof_H 	H 	0.7757	0.3139	0.0281	0.165
Mof_H 	H 	0.7914	0.2879	0.9537	0.179
Mof_H 	H 	0.8157	0.2479	0.0182	0.179
Mof_C 	C 	0.7958	0.2934	0.5603	-0.29
Mof_C 	C 	0.8485	0.3395	0.5622	0.102
Mof_C 	C 	0.859	0.3581	0.491	-0.03
Mof_C 	C 	0.7794	0.2734	0.6289	0.448
Mof_Cu	Cu	0.30451	0.73051	0.26506	0.918
Mof_O 	O 	0.275	0.6388	0.2376	-0.465
Mof_O 	O 	0.1886	0.6722	0.2204	-0.514
Mof_O 	O 	0.0605	0.5581	0.0664	-0.415
Mof_O 	O 	0.3142	0.744	0.1724	-0.431
Mof_O 	O 	0.2279	0.7831	0.1437	-0.452
Mof_C 	C 	0.2028	0.5615	0.204	-0.301
Mof_C 	C 	0.1553	0.5597	0.1562	0.166
Mof_H 	H 	0.1416	0.6016	0.1389	-0.006
Mof_H 	H 	0.273	0.4589	0.303	0.083
Mof_H 	H 	0.2715	0.5396	0.305	0.086
Mof_H 	H 	0.3129	0.4985	0.2517	0.084
Mof_C 	C 	0.2236	0.6308	0.2201	0.562
Mof_H 	H 	0.2757	0.8139	0.5281	0.165
Mof_H 	H 	0.2914	0.7879	0.4537	0.182
Mof_H 	H 	0.3157	0.7479	0.5182	0.172
Mof_C 	C 	0.2958	0.7934	0.0603	-0.288
Mof_C 	C 	0.3485	0.8395	0.0622	0.102
Mof_C 	C 	0.359	0.8581	0.991	-0.013
Mof_C 	C 	0.2794	0.7734	0.1289	0.447
Mof_Cu	Cu	0.19549	0.76949	0.76506	0.916
Mof_O 	O 	0.225	0.8612	0.7376	-0.468
Mof_O 	O 	0.3114	0.8278	0.7204	-0.512
Mof_O 	O 	0.4395	0.9419	0.5664	-0.409
Mof_O 	O 	0.1858	0.756	0.6724	-0.436
Mof_O 	O 	0.2721	0.7169	0.6437	-0.45
Mof_C 	C 	0.2972	0.9385	0.704	-0.3
Mof_C 	C 	0.3447	0.9403	0.6562	0.162
Mof_H 	H 	0.3584	0.8984	0.6389	-0.004
Mof_H 	H 	0.227	0.0411	0.803	0.081
Mof_H 	H 	0.2285	0.9604	0.805	0.084
Mof_H 	H 	0.1871	0.0015	0.7517	0.077
Mof_C 	C 	0.2764	0.8692	0.7201	0.561
Mof_H 	H 	0.2243	0.6861	0.0281	0.163
Mof_H 	H 	0.2086	0.7121	0.9537	0.175
Mof_H 	H 	0.1843	0.7521	0.0182	0.171
Mof_C 	C 	0.2042	0.7066	0.5603	-0.288
Mof_C 	C 	0.1515	0.6605	0.5622	0.087
Mof_C 	C 	0.141	0.6419	0.491	-0.033
Mof_C 	C 	0.2206	0.7266	0.6289	0.446
Mof_Cu	Cu	0.69549	0.26949	0.26506	0.917
Mof_O 	O 	0.725	0.3612	0.2376	-0.464
Mof_O 	O 	0.8114	0.3278	0.2204	-0.507
Mof_O 	O 	0.9395	0.4419	0.0664	-0.386
Mof_O 	O 	0.6858	0.256	0.1724	-0.431
Mof_O 	O 	0.7721	0.2169	0.1437	-0.446
Mof_C 	C 	0.7972	0.4385	0.204	-0.294
Mof_C 	C 	0.8447	0.4403	0.1562	0.162
Mof_H 	H 	0.8584	0.3984	0.1389	0.001
Mof_H 	H 	0.727	0.5411	0.303	0.083
Mof_H 	H 	0.7285	0.4604	0.305	0.086
Mof_H 	H 	0.6871	0.5015	0.2517	0.084
Mof_C 	C 	0.7764	0.3692	0.2201	0.559
Mof_H 	H 	0.7243	0.1861	0.5281	0.168
Mof_H 	H 	0.7086	0.2121	0.4537	0.184
Mof_H 	H 	0.6843	0.2521	0.5182	0.174
Mof_C 	C 	0.7042	0.2066	0.0603	-0.288
Mof_C 	C 	0.6515	0.1605	0.0622	0.105
Mof_C 	C 	0.641	0.1419	0.991	-0.01
Mof_C 	C 	0.7206	0.2266	0.1289	0.446
Mof_Cu	Cu	0.19549	0.23051	0.23494	0.916
Mof_O 	O 	0.225	0.1388	0.2624	-0.467
Mof_O 	O 	0.3114	0.1722	0.2796	-0.511
Mof_O 	O 	0.4395	0.0581	0.4336	-0.407
Mof_O 	O 	0.1858	0.244	0.3276	-0.435
Mof_O 	O 	0.2721	0.2831	0.3563	-0.45
Mof_C 	C 	0.2972	0.0615	0.296	-0.298
Mof_C 	C 	0.3447	0.0597	0.3438	0.164
Mof_H 	H 	0.3584	0.1016	0.3611	-0.004
Mof_H 	H 	0.227	0.9589	0.197	0.081
Mof_H 	H 	0.2285	0.0396	0.195	0.085
Mof_H 	H 	0.1871	0.9985	0.2483	0.084
Mof_C 	C 	0.2764	0.1308	0.2799	0.561
Mof_H 	H 	0.2243	0.3139	0.9719	0.152
Mof_H 	H 	0.2086	0.2879	0.0463	0.17
Mof_H 	H 	0.1843	0.2479	0.9818	0.153
Mof_C 	C 	0.2042	0.2934	0.4397	-0.288
Mof_C 	C 	0.1515	0.3395	0.4378	0.087
Mof_C 	C 	0.141	0.3581	0.509	-0.033
Mof_C 	C 	0.2206	0.2734	0.3711	0.446
Mof_Cu	Cu	0.69549	0.73051	0.73494	0.917
Mof_O 	O 	0.725	0.6388	0.7624	-0.465
Mof_O 	O 	0.8114	0.6722	0.7796	-0.507
Mof_O 	O 	0.9395	0.5581	0.9336	-0.393
Mof_O 	O 	0.6858	0.744	0.8276	-0.432
Mof_O 	O 	0.7721	0.7831	0.8563	-0.448
Mof_C 	C 	0.7972	0.5615	0.796	-0.295
Mof_C 	C 	0.8447	0.5597	0.8438	0.162
Mof_H 	H 	0.8584	0.6016	0.8611	-0.001
Mof_H 	H 	0.727	0.4589	0.697	0.083
Mof_H 	H 	0.7285	0.5396	0.695	0.086
Mof_H 	H 	0.6871	0.4985	0.7483	0.083
Mof_C 	C 	0.7764	0.6308	0.7799	0.559
Mof_H 	H 	0.7243	0.8139	0.4719	0.168
Mof_H 	H 	0.7086	0.7879	0.5463	0.183
Mof_H 	H 	0.6843	0.7479	0.4818	0.173
Mof_C 	C 	0.7042	0.7934	0.9397	-0.292
Mof_C 	C 	0.6515	0.8395	0.9378	0.086
Mof_C 	C 	0.641	0.8581	0.009	-0.053
Mof_C 	C 	0.7206	0.7734	0.8711	0.447
Mof_Cu	Cu	0.80451	0.76949	0.23494	0.919
Mof_O 	O 	0.775	0.8612	0.2624	-0.462
Mof_O 	O 	0.6886	0.8278	0.2796	-0.511
Mof_O 	O 	0.5605	0.9419	0.4336	-0.408
Mof_O 	O 	0.8142	0.756	0.3276	-0.428
Mof_O 	O 	0.7279	0.7169	0.3563	-0.45
Mof_C 	C 	0.7028	0.9385	0.296	-0.299
Mof_C 	C 	0.6553	0.9403	0.3438	0.163
Mof_H 	H 	0.6416	0.8984	0.3611	-0.003
Mof_H 	H 	0.773	0.0411	0.197	0.084
Mof_H 	H 	0.7715	0.9604	0.195	0.087
Mof_H 	H 	0.8129	0.0015	0.2483	0.082
Mof_C 	C 	0.7236	0.8692	0.2799	0.56
Mof_H 	H 	0.7757	0.6861	0.9719	0.151
Mof_H 	H 	0.7914	0.7121	0.0463	0.172
Mof_H 	H 	0.8157	0.7521	0.9818	0.154
Mof_C 	C 	0.7958	0.7066	0.4397	-0.29
Mof_C 	C 	0.8485	0.6605	0.4378	0.102
Mof_C 	C 	0.859	0.6419	0.509	-0.03
Mof_C 	C 	0.7794	0.7266	0.3711	0.448
Mof_Cu	Cu	0.30451	0.26949	0.73494	0.917
Mof_O 	O 	0.275	0.3612	0.7624	-0.466
Mof_O 	O 	0.1886	0.3278	0.7796	-0.515
Mof_O 	O 	0.0605	0.4419	0.9336	-0.419
Mof_O 	O 	0.3142	0.256	0.8276	-0.432
Mof_O 	O 	0.2279	0.2169	0.8563	-0.453
Mof_C 	C 	0.2028	0.4385	0.796	-0.302
Mof_C 	C 	0.1553	0.4403	0.8438	0.166
Mof_H 	H 	0.1416	0.3984	0.8611	-0.007
Mof_H 	H 	0.273	0.5411	0.697	0.083
Mof_H 	H 	0.2715	0.4604	0.695	0.086
Mof_H 	H 	0.3129	0.5015	0.7483	0.084
Mof_C 	C 	0.2236	0.3692	0.7799	0.562
Mof_H 	H 	0.2757	0.1861	0.4719	0.165
Mof_H 	H 	0.2914	0.2121	0.5463	0.182
Mof_H 	H 	0.3157	0.2521	0.4818	0.172
Mof_C 	C 	0.2958	0.2066	0.9397	-0.291
Mof_C 	C 	0.3485	0.1605	0.9378	0.086
Mof_C 	C 	0.359	0.1419	0.009	-0.05
Mof_C 	C 	0.2794	0.2266	0.8711	0.448
Mof_Cu	Cu	0.19549	0.76949	0.23494	0.916
Mof_O 	O 	0.225	0.8612	0.2624	-0.468
Mof_O 	O 	0.3114	0.8278	0.2796	-0.511
Mof_O 	O 	0.4395	0.9419	0.4336	-0.409
Mof_O 	O 	0.1858	0.756	0.3276	-0.436
Mof_O 	O 	0.2721	0.7169	0.3563	-0.45
Mof_C 	C 	0.2972	0.9385	0.296	-0.299
Mof_C 	C 	0.3447	0.9403	0.3438	0.162
Mof_H 	H 	0.3584	0.8984	0.3611	-0.003
Mof_H 	H 	0.227	0.0411	0.197	0.082
Mof_H 	H 	0.2285	0.9604	0.195	0.084
Mof_H 	H 	0.1871	0.0015	0.2483	0.077
Mof_C 	C 	0.2764	0.8692	0.2799	0.561
Mof_H 	H 	0.2243	0.6861	0.9719	0.152
Mof_H 	H 	0.2086	0.7121	0.0463	0.17
Mof_H 	H 	0.1843	0.7521	0.9818	0.153
Mof_C 	C 	0.2042	0.7066	0.4397	-0.288
Mof_C 	C 	0.1515	0.6605	0.4378	0.087
Mof_C 	C 	0.141	0.6419	0.509	-0.033
Mof_C 	C 	0.2206	0.7266	0.3711	0.446
Mof_Cu	Cu	0.69549	0.26949	0.73494	0.917
Mof_O 	O 	0.725	0.3612	0.7624	-0.465
Mof_O 	O 	0.8114	0.3278	0.7796	-0.507
Mof_O 	O 	0.9395	0.4419	0.9336	-0.392
Mof_O 	O 	0.6858	0.256	0.8276	-0.432
Mof_O 	O 	0.7721	0.2169	0.8563	-0.448
Mof_C 	C 	0.7972	0.4385	0.796	-0.295
Mof_C 	C 	0.8447	0.4403	0.8438	0.162
Mof_H 	H 	0.8584	0.3984	0.8611	-0.001
Mof_H 	H 	0.727	0.5411	0.697	0.083
Mof_H 	H 	0.7285	0.4604	0.695	0.086
Mof_H 	H 	0.6871	0.5015	0.7483	0.083
Mof_C 	C 	0.7764	0.3692	0.7799	0.559
Mof_H 	H 	0.7243	0.1861	0.4719	0.168
Mof_H 	H 	0.7086	0.2121	0.5463	0.184
Mof_H 	H 	0.6843	0.2521	0.4818	0.174
Mof_C 	C 	0.7042	0.2066	0.9397	-0.292
Mof_C 	C 	0.6515	0.1605	0.9378	0.086
Mof_C 	C 	0.641	0.1419	0.009	-0.053
Mof_C 	C 	0.7206	0.2266	0.8711	0.447
Mof_Cu	Cu	0.80451	0.23051	0.23494	0.92
Mof_O 	O 	0.775	0.1388	0.2624	-0.462
Mof_O 	O 	0.6886	0.1722	0.2796	-0.511
Mof_O 	O 	0.5605	0.0581	0.4336	-0.407
Mof_O 	O 	0.8142	0.244	0.3276	-0.427
Mof_O 	O 	0.7279	0.2831	0.3563	-0.45
Mof_C 	C 	0.7028	0.0615	0.296	-0.297
Mof_C 	C 	0.6553	0.0597	0.3438	0.165
Mof_H 	H 	0.6416	0.1016	0.3611	-0.004
Mof_H 	H 	0.773	0.9589	0.197	0.083
Mof_H 	H 	0.7715	0.0396	0.195	0.087
Mof_H 	H 	0.8129	0.9985	0.2483	0.089
Mof_C 	C 	0.7236	0.1308	0.2799	0.56
Mof_H 	H 	0.7757	0.3139	0.9719	0.151
Mof_H 	H 	0.7914	0.2879	0.0463	0.172
Mof_H 	H 	0.8157	0.2479	0.9818	0.154
Mof_C 	C 	0.7958	0.2934	0.4397	-0.29
Mof_C 	C 	0.8485	0.3395	0.4378	0.102
Mof_C 	C 	0.859	0.3581	0.509	-0.03
Mof_C 	C 	0.7794	0.2734	0.3711	0.448
Mof_Cu	Cu	0.30451	0.73051	0.73494	0.917
Mof_O 	O 	0.275	0.6388	0.7624	-0.466
Mof_O 	O 	0.1886	0.6722	0.7796	-0.515
Mof_O 	O 	0.0605	0.5581	0.9336	-0.419
Mof_O 	O 	0.3142	0.744	0.8276	-0.432
Mof_O 	O 	0.2279	0.7831	0.8563	-0.453
Mof_C 	C 	0.2028	0.5615	0.796	-0.302
Mof_C 	C 	0.1553	0.5597	0.8438	0.166
Mof_H 	H 	0.1416	0.6016	0.8611	-0.007
Mof_H 	H 	0.273	0.4589	0.697	0.083
Mof_H 	H 	0.2715	0.5396	0.695	0.086
Mof_H 	H 	0.3129	0.4985	0.7483	0.084
Mof_C 	C 	0.2236	0.6308	0.7799	0.562
Mof_H 	H 	0.2757	0.8139	0.4719	0.165
Mof_H 	H 	0.2914	0.7879	0.5463	0.182
Mof_H 	H 	0.3157	0.7479	0.4818	0.172
Mof_C 	C 	0.2958	0.7934	0.9397	-0.291
Mof_C 	C 	0.3485	0.8395	0.9378	0.086
Mof_C 	C 	0.359	0.8581	0.009	-0.05
Mof_C 	C 	0.2794	0.7734	0.8711	0.448
Mof_Cu	Cu	0.80451	0.76949	0.76506	0.919
Mof_O 	O 	0.775	0.8612	0.7376	-0.463
Mof_O 	O 	0.6886	0.8278	0.7204	-0.511
Mof_O 	O 	0.5605	0.9419	0.5664	-0.409
Mof_O 	O 	0.8142	0.756	0.6724	-0.428
Mof_O 	O 	0.7279	0.7169	0.6437	-0.45
Mof_C 	C 	0.7028	0.9385	0.704	-0.299
Mof_C 	C 	0.6553	0.9403	0.6562	0.163
Mof_H 	H 	0.6416	0.8984	0.6389	-0.003
Mof_H 	H 	0.773	0.0411	0.803	0.083
Mof_H 	H 	0.7715	0.9604	0.805	0.086
Mof_H 	H 	0.8129	0.0015	0.7517	0.081
Mof_C 	C 	0.7236	0.8692	0.7201	0.56
Mof_H 	H 	0.7757	0.6861	0.0281	0.165
Mof_H 	H 	0.7914	0.7121	0.9537	0.179
Mof_H 	H 	0.8157	0.7521	0.0182	0.178
Mof_C 	C 	0.7958	0.7066	0.5603	-0.29
Mof_C 	C 	0.8485	0.6605	0.5622	0.102
Mof_C 	C 	0.859	0.6419	0.491	-0.03
Mof_C 	C 	0.7794	0.7266	0.6289	0.448
Mof_Cu	Cu	0.30451	0.26949	0.26506	0.918
Mof_O 	O 	0.275	0.3612	0.2376	-0.465
Mof_O 	O 	0.1886	0.3278	0.2204	-0.514
Mof_O 	O 	0.0605	0.4419	0.0664	-0.415
Mof_O 	O 	0.3142	0.256	0.1724	-0.431
Mof_O 	O 	0.2279	0.2169	0.1437	-0.451
Mof_C 	C 	0.2028	0.4385	0.204	-0.301
Mof_C 	C 	0.1553	0.4403	0.1562	0.166
Mof_H 	H 	0.1416	0.3984	0.1389	-0.006
Mof_H 	H 	0.273	0.5411	0.303	0.083
Mof_H 	H 	0.2715	0.4604	0.305	0.086
Mof_H 	H 	0.3129	0.5015	0.2517	0.084
Mof_C 	C 	0.2236	0.3692	0.2201	0.562
Mof_H 	H 	0.2757	0.1861	0.5281	0.165
Mof_H 	H 	0.2914	0.2121	0.4537	0.182
Mof_H 	H 	0.3157	0.2521	0.5182	0.172
Mof_C 	C 	0.2958	0.2066	0.0603	-0.288
Mof_C 	C 	0.3485	0.1605	0.0622	0.103
Mof_C 	C 	0.359	0.1419	0.991	-0.013
Mof_C 	C 	0.2794	0.2266	0.1289	0.447
Mof_Cu	Cu	0.19549	0.23051	0.76506	0.916
Mof_O 	O 	0.225	0.1388	0.7376	-0.468
Mof_O 	O 	0.3114	0.1722	0.7204	-0.511
Mof_O 	O 	0.4395	0.0581	0.5664	-0.407
Mof_O 	O 	0.1858	0.244	0.6724	-0.435
Mof_O 	O 	0.2721	0.2831	0.6437	-0.45
Mof_C 	C 	0.2972	0.0615	0.704	-0.298
Mof_C 	C 	0.3447	0.0597	0.6562	0.164
Mof_H 	H 	0.3584	0.1016	0.6389	-0.004
Mof_H 	H 	0.227	0.9589	0.803	0.08
Mof_H 	H 	0.2285	0.0396	0.805	0.084
Mof_H 	H 	0.1871	0.9985	0.7517	0.084
Mof_C 	C 	0.2764	0.1308	0.7201	0.561
Mof_H 	H 	0.2243	0.3139	0.0281	0.163
Mof_H 	H 	0.2086	0.2879	0.9537	0.176
Mof_H 	H 	0.1843	0.2479	0.0182	0.171
Mof_C 	C 	0.2042	0.2934	0.5603	-0.288
Mof_C 	C 	0.1515	0.3395	0.5622	0.087
Mof_C 	C 	0.141	0.3581	0.491	-0.033
Mof_C 	C 	0.2206	0.2734	0.6289	0.446
Mof_Cu	Cu	0.69549	0.73051	0.26506	0.917
Mof_O 	O 	0.725	0.6388	0.2376	-0.464
Mof_O 	O 	0.8114	0.6722	0.2204	-0.507
Mof_O 	O 	0.9395	0.5581	0.0664	-0.386
Mof_O 	O 	0.6858	0.744	0.1724	-0.431
Mof_O 	O 	0.7721	0.7831	0.1437	-0.447
Mof_C 	C 	0.7972	0.5615	0.204	-0.294
Mof_C 	C 	0.8447	0.5597	0.1562	0.162
Mof_H 	H 	0.8584	0.6016	0.1389	0.001
Mof_H 	H 	0.727	0.4589	0.303	0.083
Mof_H 	H 	0.7285	0.5396	0.305	0.086
Mof_H 	H 	0.6871	0.4985	0.2517	0.084
Mof_C 	C 	0.7764	0.6308	0.2201	0.559
Mof_H 	H 	0.7243	0.8139	0.5281	0.168
Mof_H 	H 	0.7086	0.7879	0.4537	0.183
Mof_H 	H 	0.6843	0.7479	0.5182	0.173
Mof_C 	C 	0.7042	0.7934	0.0603	-0.288
Mof_C 	C 	0.6515	0.8395	0.0622	0.104
Mof_C 	C 	0.641	0.8581	0.991	-0.01
Mof_C 	C 	0.7206	0.7734	0.1289	0.446
Mof_Cu	Cu	0.5	0.06685	0.5	0.914
Mof_Cu	Cu	-0	0.56685	-0	0.899
Mof_Cu	Cu	0.5	0.93315	0.5	0.914
Mof_Cu	Cu	2.84481e-33	0.43315	-0	0.9
Mof_C 	C 	0.627	-5.68963e-33	0.6327	-0.219
Mof_C 	C 	0.5831	-5.68963e-33	0.5861	0.375
Mof_C 	C 	0.7269	-5.68963e-33	0.7271	0.335
Mof_C 	C 	0.775	0	0.7757	-0.509
Mof_C 	C 	0.127	0.5	0.1327	-0.226
Mof_C 	C 	0.0831	0.5	0.0861	0.374
Mof_C 	C 	0.2269	0.5	0.2271	0.334
Mof_C 	C 	0.275	0.5	0.2757	-0.514
Mof_C 	C 	0.373	-5.68963e-33	0.6327	-0.219
Mof_C 	C 	0.4169	-5.68963e-33	0.5861	0.374
Mof_C 	C 	0.2731	-5.68963e-33	0.7271	0.331
Mof_C 	C 	0.225	0	0.7757	-0.503
Mof_C 	C 	0.873	0.5	0.1327	-0.212
Mof_C 	C 	0.9169	0.5	0.0861	0.369
Mof_C 	C 	0.7731	0.5	0.2271	0.332
Mof_C 	C 	0.725	0.5	0.2757	-0.512
Mof_C 	C 	0.373	-5.68963e-33	0.3673	-0.219
Mof_C 	C 	0.4169	-2.84481e-33	0.4139	0.374
Mof_C 	C 	0.2731	-2.84481e-33	0.2729	0.331
Mof_C 	C 	0.225	0	0.2243	-0.504
Mof_C 	C 	0.873	0.5	0.8673	-0.214
Mof_C 	C 	0.9169	0.5	0.9139	0.369
Mof_C 	C 	0.7731	0.5	0.7729	0.332
Mof_C 	C 	0.725	0.5	0.7243	-0.511
Mof_C 	C 	0.627	-5.68963e-33	0.3673	-0.219
Mof_C 	C 	0.5831	-2.84481e-33	0.4139	0.375
Mof_C 	C 	0.7269	-2.84481e-33	0.2729	0.335
Mof_C 	C 	0.775	0	0.2243	-0.51
Mof_C 	C 	0.127	0.5	0.8673	-0.227
Mof_C 	C 	0.0831	0.5	0.9139	0.374
Mof_C 	C 	0.2269	0.5	0.7729	0.334
Mof_C 	C 	0.275	0.5	0.7243	-0.514
Mof_C 	C 	0.7176	0.2261	0.5	-0.972
Mof_C 	C 	0.7767	0.2726	0.5	0.4
Mof_C 	C 	0.2176	0.7261	-0	-0.914
Mof_C 	C 	0.2767	0.7726	-0	0.393
Mof_C 	C 	0.2824	0.7739	0.5	-0.963
Mof_C 	C 	0.2233	0.7274	0.5	0.393
Mof_C 	C 	0.7824	0.2739	-0	-0.92
Mof_C 	C 	0.7233	0.2274	-0	0.397
Mof_C 	C 	0.2824	0.2261	0.5	-0.964
Mof_C 	C 	0.2233	0.2726	0.5	0.393
Mof_C 	C 	0.7824	0.7261	-0	-0.92
Mof_C 	C 	0.7233	0.7726	-0	0.397
Mof_C 	C 	0.7176	0.7739	0.5	-0.971
Mof_C 	C 	0.7767	0.7274	0.5	0.4
Mof_C 	C 	0.2176	0.2739	-0	-0.914
Mof_C 	C 	0.2767	0.2274	-0	0.393
_end
