data_functionalizedCrystal
_audit_creation_method	'EQeq! by Chris Wilmer'
_symmetry_space_group_name_H-M	'P1'
_symmetry_Int_Tables_number	1
_symmetry_cell_setting	triclinic
loop_
_symmetry_equiv_pos_as_xyz
  x,y,z
_cell_length_a	46.627
_cell_length_b	46.627
_cell_length_c	46.627
_cell_angle_alpha	90
_cell_angle_beta	90
_cell_angle_gamma	90
loop_
_atom_site_label
_atom_site_type_symbol
_atom_site_fract_x
_atom_site_fract_y
_atom_site_fract_z
_atom_site_charge
Mof_O 	O 	0.17328	0.21527	0.03014	-0.488
Mof_O 	O 	0.13968	0.18232	0.03016	-0.501
Mof_C 	C 	0.1512	0.20401	0.0399	0.444
Mof_C 	C 	0.13602	0.21966	0.06318	-0.159
Mof_C 	C 	0.11274	0.20758	0.07524	0.048
Mof_H 	H 	0.1056	0.1901	0.0676	0.024
Mof_C 	C 	0.13385	0.25867	0.09654	-0.168
Mof_H 	H 	0.1416	0.2762	0.1036	0.083
Mof_C 	C 	0.14659	0.24581	0.07368	0.087
Mof_H 	H 	0.1627	0.2546	0.0648	0.012
Mof_H 	H 	0.2624	0.2053	0.0172	-0.01
Mof_H 	H 	0.222	0.2463	0.0405	0.018
Mof_C 	C 	0.2531	0.2234	0.0197	-0.157
Mof_H 	H 	0.2617	0.2048	0.0141	0.036
Mof_H 	H 	0.2451	0.2214	0.0392	0.014
Mof_O 	O 	0.17328	0.71527	0.53014	-0.488
Mof_O 	O 	0.13968	0.68232	0.53016	-0.5
Mof_C 	C 	0.1512	0.70401	0.5399	0.444
Mof_C 	C 	0.13602	0.71966	0.56318	-0.159
Mof_C 	C 	0.11274	0.70758	0.57524	0.047
Mof_H 	H 	0.1056	0.6901	0.5676	0.024
Mof_C 	C 	0.13385	0.75867	0.59654	-0.168
Mof_H 	H 	0.1416	0.7762	0.6036	0.083
Mof_C 	C 	0.14659	0.74581	0.57368	0.087
Mof_H 	H 	0.1627	0.7546	0.5648	0.012
Mof_H 	H 	0.2624	0.7053	0.5172	-0.004
Mof_H 	H 	0.222	0.7463	0.5405	0.018
Mof_C 	C 	0.2531	0.7234	0.5197	-0.123
Mof_H 	H 	0.2617	0.7048	0.5141	0.031
Mof_H 	H 	0.2451	0.7214	0.5392	0.015
Mof_O 	O 	0.67328	0.21527	0.53014	-0.488
Mof_O 	O 	0.63968	0.18232	0.53016	-0.5
Mof_C 	C 	0.6512	0.20401	0.5399	0.444
Mof_C 	C 	0.63602	0.21966	0.56318	-0.159
Mof_C 	C 	0.61274	0.20758	0.57524	0.047
Mof_H 	H 	0.6056	0.1901	0.5676	0.024
Mof_C 	C 	0.63385	0.25867	0.59654	-0.168
Mof_H 	H 	0.6416	0.2762	0.6036	0.083
Mof_C 	C 	0.64659	0.24581	0.57368	0.087
Mof_H 	H 	0.6627	0.2546	0.5648	0.012
Mof_H 	H 	0.7624	0.2053	0.5172	-0.004
Mof_H 	H 	0.722	0.2463	0.5405	0.018
Mof_C 	C 	0.7531	0.2234	0.5197	-0.123
Mof_H 	H 	0.7617	0.2048	0.5141	0.031
Mof_H 	H 	0.7451	0.2214	0.5392	0.015
Mof_O 	O 	0.67328	0.71527	0.03014	-0.488
Mof_O 	O 	0.63968	0.68232	0.03016	-0.501
Mof_C 	C 	0.6512	0.70401	0.0399	0.444
Mof_C 	C 	0.63602	0.71966	0.06318	-0.159
Mof_C 	C 	0.61274	0.70758	0.07524	0.047
Mof_H 	H 	0.6056	0.6901	0.0676	0.024
Mof_C 	C 	0.63385	0.75867	0.09654	-0.168
Mof_H 	H 	0.6416	0.7762	0.1036	0.083
Mof_C 	C 	0.64659	0.74581	0.07368	0.087
Mof_H 	H 	0.6627	0.7546	0.0648	0.012
Mof_H 	H 	0.7624	0.7053	0.0172	-0.01
Mof_H 	H 	0.722	0.7463	0.0405	0.018
Mof_C 	C 	0.7531	0.7234	0.0197	-0.157
Mof_H 	H 	0.7617	0.7048	0.0141	0.036
Mof_H 	H 	0.7451	0.7214	0.0392	0.014
Mof_O 	O 	0.82672	0.78473	0.03014	-0.488
Mof_O 	O 	0.86032	0.81768	0.03016	-0.501
Mof_C 	C 	0.8488	0.79599	0.0399	0.443
Mof_C 	C 	0.86398	0.78034	0.06318	-0.159
Mof_C 	C 	0.88726	0.79242	0.07524	0.047
Mof_H 	H 	0.8944	0.8099	0.0676	0.025
Mof_C 	C 	0.86615	0.74133	0.09654	-0.168
Mof_H 	H 	0.8584	0.7238	0.1036	0.083
Mof_C 	C 	0.85341	0.75419	0.07368	0.087
Mof_H 	H 	0.8373	0.7454	0.0648	0.012
Mof_H 	H 	0.7376	0.7947	0.0172	-0.01
Mof_H 	H 	0.778	0.7537	0.0405	0.018
Mof_C 	C 	0.7469	0.7766	0.0197	-0.157
Mof_H 	H 	0.7383	0.7952	0.0141	0.036
Mof_H 	H 	0.7549	0.7786	0.0392	0.014
Mof_O 	O 	0.82672	0.28473	0.53014	-0.487
Mof_O 	O 	0.86032	0.31768	0.53016	-0.5
Mof_C 	C 	0.8488	0.29599	0.5399	0.443
Mof_C 	C 	0.86398	0.28034	0.56318	-0.158
Mof_C 	C 	0.88726	0.29242	0.57524	0.047
Mof_H 	H 	0.8944	0.3099	0.5676	0.025
Mof_C 	C 	0.86615	0.24133	0.59654	-0.167
Mof_H 	H 	0.8584	0.2238	0.6036	0.083
Mof_C 	C 	0.85341	0.25419	0.57368	0.087
Mof_H 	H 	0.8373	0.2454	0.5648	0.012
Mof_H 	H 	0.7376	0.2947	0.5172	-0.004
Mof_H 	H 	0.778	0.2537	0.5405	0.018
Mof_C 	C 	0.7469	0.2766	0.5197	-0.123
Mof_H 	H 	0.7383	0.2952	0.5141	0.031
Mof_H 	H 	0.7549	0.2786	0.5392	0.015
Mof_O 	O 	0.32672	0.78473	0.53014	-0.487
Mof_O 	O 	0.36032	0.81768	0.53016	-0.499
Mof_C 	C 	0.3488	0.79599	0.5399	0.444
Mof_C 	C 	0.36398	0.78034	0.56318	-0.157
Mof_C 	C 	0.38726	0.79242	0.57524	0.048
Mof_H 	H 	0.3944	0.8099	0.5676	0.026
Mof_C 	C 	0.36615	0.74133	0.59654	-0.167
Mof_H 	H 	0.3584	0.7238	0.6036	0.084
Mof_C 	C 	0.35341	0.75419	0.57368	0.088
Mof_H 	H 	0.3373	0.7454	0.5648	0.013
Mof_H 	H 	0.2376	0.7947	0.5172	-0.003
Mof_H 	H 	0.278	0.7537	0.5405	0.019
Mof_C 	C 	0.2469	0.7766	0.5197	-0.122
Mof_H 	H 	0.2383	0.7952	0.5141	0.032
Mof_H 	H 	0.2549	0.7786	0.5392	0.016
Mof_O 	O 	0.32672	0.28473	0.03014	-0.487
Mof_O 	O 	0.36032	0.31768	0.03016	-0.5
Mof_C 	C 	0.3488	0.29599	0.0399	0.445
Mof_C 	C 	0.36398	0.28034	0.06318	-0.158
Mof_C 	C 	0.38726	0.29242	0.07524	0.048
Mof_H 	H 	0.3944	0.3099	0.0676	0.025
Mof_C 	C 	0.36615	0.24133	0.09654	-0.167
Mof_H 	H 	0.3584	0.2238	0.1036	0.084
Mof_C 	C 	0.35341	0.25419	0.07368	0.088
Mof_H 	H 	0.3373	0.2454	0.0648	0.013
Mof_H 	H 	0.2376	0.2947	0.0172	-0.009
Mof_H 	H 	0.278	0.2537	0.0405	0.019
Mof_C 	C 	0.2469	0.2766	0.0197	-0.156
Mof_H 	H 	0.2383	0.2952	0.0141	0.037
Mof_H 	H 	0.2549	0.2786	0.0392	0.015
Mof_O 	O 	0.82672	0.21527	0.96986	-0.485
Mof_O 	O 	0.86032	0.18232	0.96984	-0.497
Mof_C 	C 	0.8488	0.20401	0.9601	0.444
Mof_C 	C 	0.86398	0.21966	0.93682	-0.156
Mof_C 	C 	0.88726	0.20758	0.92476	0.048
Mof_H 	H 	0.8944	0.1901	0.9324	0.026
Mof_C 	C 	0.86615	0.25867	0.90346	-0.166
Mof_H 	H 	0.8584	0.2762	0.8964	0.084
Mof_C 	C 	0.85341	0.24581	0.92632	0.088
Mof_H 	H 	0.8373	0.2546	0.9352	0.013
Mof_H 	H 	0.7376	0.2053	0.9828	-0.007
Mof_H 	H 	0.778	0.2463	0.9595	0.019
Mof_C 	C 	0.7469	0.2234	0.9803	-0.149
Mof_H 	H 	0.7383	0.2048	0.9859	0.036
Mof_H 	H 	0.7549	0.2214	0.9608	0.015
Mof_O 	O 	0.82672	0.71527	0.46986	-0.486
Mof_O 	O 	0.86032	0.68232	0.46984	-0.499
Mof_C 	C 	0.8488	0.70401	0.4601	0.444
Mof_C 	C 	0.86398	0.71966	0.43682	-0.157
Mof_C 	C 	0.88726	0.70758	0.42476	0.048
Mof_H 	H 	0.8944	0.6901	0.4324	0.026
Mof_C 	C 	0.86615	0.75867	0.40346	-0.166
Mof_H 	H 	0.8584	0.7762	0.3964	0.084
Mof_C 	C 	0.85341	0.74581	0.42632	0.088
Mof_H 	H 	0.8373	0.7546	0.4352	0.013
Mof_H 	H 	0.7376	0.7053	0.4828	-0.003
Mof_H 	H 	0.778	0.7463	0.4595	0.019
Mof_C 	C 	0.7469	0.7234	0.4803	-0.122
Mof_H 	H 	0.7383	0.7048	0.4859	0.032
Mof_H 	H 	0.7549	0.7214	0.4608	0.016
Mof_O 	O 	0.32672	0.21527	0.46986	-0.487
Mof_O 	O 	0.36032	0.18232	0.46984	-0.499
Mof_C 	C 	0.3488	0.20401	0.4601	0.445
Mof_C 	C 	0.36398	0.21966	0.43682	-0.158
Mof_C 	C 	0.38726	0.20758	0.42476	0.048
Mof_H 	H 	0.3944	0.1901	0.4324	0.025
Mof_C 	C 	0.36615	0.25867	0.40346	-0.167
Mof_H 	H 	0.3584	0.2762	0.3964	0.084
Mof_C 	C 	0.35341	0.24581	0.42632	0.088
Mof_H 	H 	0.3373	0.2546	0.4352	0.013
Mof_H 	H 	0.2376	0.2053	0.4828	-0.003
Mof_H 	H 	0.278	0.2463	0.4595	0.019
Mof_C 	C 	0.2469	0.2234	0.4803	-0.122
Mof_H 	H 	0.2383	0.2048	0.4859	0.032
Mof_H 	H 	0.2549	0.2214	0.4608	0.016
Mof_O 	O 	0.32672	0.71527	0.96986	-0.485
Mof_O 	O 	0.36032	0.68232	0.96984	-0.497
Mof_C 	C 	0.3488	0.70401	0.9601	0.444
Mof_C 	C 	0.36398	0.71966	0.93682	-0.157
Mof_C 	C 	0.38726	0.70758	0.92476	0.048
Mof_H 	H 	0.3944	0.6901	0.9324	0.026
Mof_C 	C 	0.36615	0.75867	0.90346	-0.166
Mof_H 	H 	0.3584	0.7762	0.8964	0.084
Mof_C 	C 	0.35341	0.74581	0.92632	0.088
Mof_H 	H 	0.3373	0.7546	0.9352	0.013
Mof_H 	H 	0.2376	0.7053	0.9828	-0.007
Mof_H 	H 	0.278	0.7463	0.9595	0.019
Mof_C 	C 	0.2469	0.7234	0.9803	-0.149
Mof_H 	H 	0.2383	0.7048	0.9859	0.036
Mof_H 	H 	0.2549	0.7214	0.9608	0.015
Mof_O 	O 	0.17328	0.78473	0.96986	-0.485
Mof_O 	O 	0.13968	0.81768	0.96984	-0.497
Mof_C 	C 	0.1512	0.79599	0.9601	0.444
Mof_C 	C 	0.13602	0.78034	0.93682	-0.157
Mof_C 	C 	0.11274	0.79242	0.92476	0.048
Mof_H 	H 	0.1056	0.8099	0.9324	0.026
Mof_C 	C 	0.13385	0.74133	0.90346	-0.166
Mof_H 	H 	0.1416	0.7238	0.8964	0.084
Mof_C 	C 	0.14659	0.75419	0.92632	0.088
Mof_H 	H 	0.1627	0.7454	0.9352	0.013
Mof_H 	H 	0.2624	0.7947	0.9828	-0.007
Mof_H 	H 	0.222	0.7537	0.9595	0.019
Mof_C 	C 	0.2531	0.7766	0.9803	-0.149
Mof_H 	H 	0.2617	0.7952	0.9859	0.036
Mof_H 	H 	0.2451	0.7786	0.9608	0.015
Mof_O 	O 	0.17328	0.28473	0.46986	-0.487
Mof_O 	O 	0.13968	0.31768	0.46984	-0.499
Mof_C 	C 	0.1512	0.29599	0.4601	0.445
Mof_C 	C 	0.13602	0.28034	0.43682	-0.158
Mof_C 	C 	0.11274	0.29242	0.42476	0.048
Mof_H 	H 	0.1056	0.3099	0.4324	0.025
Mof_C 	C 	0.13385	0.24133	0.40346	-0.167
Mof_H 	H 	0.1416	0.2238	0.3964	0.084
Mof_C 	C 	0.14659	0.25419	0.42632	0.088
Mof_H 	H 	0.1627	0.2454	0.4352	0.013
Mof_H 	H 	0.2624	0.2947	0.4828	-0.003
Mof_H 	H 	0.222	0.2537	0.4595	0.019
Mof_C 	C 	0.2531	0.2766	0.4803	-0.122
Mof_H 	H 	0.2617	0.2952	0.4859	0.032
Mof_H 	H 	0.2451	0.2786	0.4608	0.016
Mof_O 	O 	0.67328	0.78473	0.46986	-0.487
Mof_O 	O 	0.63968	0.81768	0.46984	-0.499
Mof_C 	C 	0.6512	0.79599	0.4601	0.444
Mof_C 	C 	0.63602	0.78034	0.43682	-0.157
Mof_C 	C 	0.61274	0.79242	0.42476	0.048
Mof_H 	H 	0.6056	0.8099	0.4324	0.026
Mof_C 	C 	0.63385	0.74133	0.40346	-0.167
Mof_H 	H 	0.6416	0.7238	0.3964	0.084
Mof_C 	C 	0.64659	0.75419	0.42632	0.088
Mof_H 	H 	0.6627	0.7454	0.4352	0.013
Mof_H 	H 	0.7624	0.7947	0.4828	-0.003
Mof_H 	H 	0.722	0.7537	0.4595	0.019
Mof_C 	C 	0.7531	0.7766	0.4803	-0.122
Mof_H 	H 	0.7617	0.7952	0.4859	0.032
Mof_H 	H 	0.7451	0.7786	0.4608	0.016
Mof_O 	O 	0.67328	0.28473	0.96986	-0.485
Mof_O 	O 	0.63968	0.31768	0.96984	-0.497
Mof_C 	C 	0.6512	0.29599	0.9601	0.444
Mof_C 	C 	0.63602	0.28034	0.93682	-0.157
Mof_C 	C 	0.61274	0.29242	0.92476	0.048
Mof_H 	H 	0.6056	0.3099	0.9324	0.026
Mof_C 	C 	0.63385	0.24133	0.90346	-0.166
Mof_H 	H 	0.6416	0.2238	0.8964	0.084
Mof_C 	C 	0.64659	0.25419	0.92632	0.088
Mof_H 	H 	0.6627	0.2454	0.9352	0.013
Mof_H 	H 	0.7624	0.2947	0.9828	-0.007
Mof_H 	H 	0.722	0.2537	0.9595	0.019
Mof_C 	C 	0.7531	0.2766	0.9803	-0.149
Mof_H 	H 	0.7617	0.2952	0.9859	0.036
Mof_H 	H 	0.7451	0.2786	0.9608	0.015
Mof_O 	O 	0.03014	0.17328	0.21527	-0.487
Mof_O 	O 	0.03016	0.13968	0.18232	-0.5
Mof_C 	C 	0.0399	0.1512	0.20401	0.445
Mof_C 	C 	0.06318	0.13602	0.21966	-0.158
Mof_C 	C 	0.07524	0.11274	0.20758	0.049
Mof_H 	H 	0.0676	0.1056	0.1901	0.025
Mof_C 	C 	0.09654	0.13385	0.25867	-0.167
Mof_H 	H 	0.1036	0.1416	0.2762	0.084
Mof_C 	C 	0.07368	0.14659	0.24581	0.088
Mof_H 	H 	0.0648	0.1627	0.2546	0.013
Mof_H 	H 	0.0172	0.2624	0.2053	-0.009
Mof_H 	H 	0.0405	0.222	0.2463	0.019
Mof_C 	C 	0.0197	0.2531	0.2234	-0.156
Mof_H 	H 	0.0141	0.2617	0.2048	0.037
Mof_H 	H 	0.0392	0.2451	0.2214	0.015
Mof_O 	O 	0.03014	0.67328	0.71527	-0.487
Mof_O 	O 	0.03016	0.63968	0.68232	-0.5
Mof_C 	C 	0.0399	0.6512	0.70401	0.445
Mof_C 	C 	0.06318	0.63602	0.71966	-0.158
Mof_C 	C 	0.07524	0.61274	0.70758	0.048
Mof_H 	H 	0.0676	0.6056	0.6901	0.025
Mof_C 	C 	0.09654	0.63385	0.75867	-0.167
Mof_H 	H 	0.1036	0.6416	0.7762	0.084
Mof_C 	C 	0.07368	0.64659	0.74581	0.088
Mof_H 	H 	0.0648	0.6627	0.7546	0.013
Mof_H 	H 	0.0172	0.7624	0.7053	-0.009
Mof_H 	H 	0.0405	0.722	0.7463	0.019
Mof_C 	C 	0.0197	0.7531	0.7234	-0.156
Mof_H 	H 	0.0141	0.7617	0.7048	0.037
Mof_H 	H 	0.0392	0.7451	0.7214	0.015
Mof_O 	O 	0.53014	0.17328	0.71527	-0.487
Mof_O 	O 	0.53016	0.13968	0.68232	-0.499
Mof_C 	C 	0.5399	0.1512	0.70401	0.445
Mof_C 	C 	0.56318	0.13602	0.71966	-0.158
Mof_C 	C 	0.57524	0.11274	0.70758	0.048
Mof_H 	H 	0.5676	0.1056	0.6901	0.025
Mof_C 	C 	0.59654	0.13385	0.75867	-0.167
Mof_H 	H 	0.6036	0.1416	0.7762	0.084
Mof_C 	C 	0.57368	0.14659	0.74581	0.088
Mof_H 	H 	0.5648	0.1627	0.7546	0.013
Mof_H 	H 	0.5172	0.2624	0.7053	-0.003
Mof_H 	H 	0.5405	0.222	0.7463	0.019
Mof_C 	C 	0.5197	0.2531	0.7234	-0.122
Mof_H 	H 	0.5141	0.2617	0.7048	0.032
Mof_H 	H 	0.5392	0.2451	0.7214	0.016
Mof_O 	O 	0.53014	0.67328	0.21527	-0.487
Mof_O 	O 	0.53016	0.63968	0.18232	-0.499
Mof_C 	C 	0.5399	0.6512	0.20401	0.445
Mof_C 	C 	0.56318	0.63602	0.21966	-0.158
Mof_C 	C 	0.57524	0.61274	0.20758	0.048
Mof_H 	H 	0.5676	0.6056	0.1901	0.025
Mof_C 	C 	0.59654	0.63385	0.25867	-0.167
Mof_H 	H 	0.6036	0.6416	0.2762	0.084
Mof_C 	C 	0.57368	0.64659	0.24581	0.088
Mof_H 	H 	0.5648	0.6627	0.2546	0.013
Mof_H 	H 	0.5172	0.7624	0.2053	-0.003
Mof_H 	H 	0.5405	0.722	0.2463	0.019
Mof_C 	C 	0.5197	0.7531	0.2234	-0.122
Mof_H 	H 	0.5141	0.7617	0.2048	0.032
Mof_H 	H 	0.5392	0.7451	0.2214	0.016
Mof_O 	O 	0.03014	0.82672	0.78473	-0.487
Mof_O 	O 	0.03016	0.86032	0.81768	-0.5
Mof_C 	C 	0.0399	0.8488	0.79599	0.444
Mof_C 	C 	0.06318	0.86398	0.78034	-0.158
Mof_C 	C 	0.07524	0.88726	0.79242	0.048
Mof_H 	H 	0.0676	0.8944	0.8099	0.026
Mof_C 	C 	0.09654	0.86615	0.74133	-0.167
Mof_H 	H 	0.1036	0.8584	0.7238	0.084
Mof_C 	C 	0.07368	0.85341	0.75419	0.088
Mof_H 	H 	0.0648	0.8373	0.7454	0.013
Mof_H 	H 	0.0172	0.7376	0.7947	-0.009
Mof_H 	H 	0.0405	0.778	0.7537	0.019
Mof_C 	C 	0.0197	0.7469	0.7766	-0.156
Mof_H 	H 	0.0141	0.7383	0.7952	0.037
Mof_H 	H 	0.0392	0.7549	0.7786	0.015
Mof_O 	O 	0.03014	0.32672	0.28473	-0.487
Mof_O 	O 	0.03016	0.36032	0.31768	-0.5
Mof_C 	C 	0.0399	0.3488	0.29599	0.445
Mof_C 	C 	0.06318	0.36398	0.28034	-0.158
Mof_C 	C 	0.07524	0.38726	0.29242	0.048
Mof_H 	H 	0.0676	0.3944	0.3099	0.025
Mof_C 	C 	0.09654	0.36615	0.24133	-0.167
Mof_H 	H 	0.1036	0.3584	0.2238	0.084
Mof_C 	C 	0.07368	0.35341	0.25419	0.088
Mof_H 	H 	0.0648	0.3373	0.2454	0.013
Mof_H 	H 	0.0172	0.2376	0.2947	-0.009
Mof_H 	H 	0.0405	0.278	0.2537	0.019
Mof_C 	C 	0.0197	0.2469	0.2766	-0.156
Mof_H 	H 	0.0141	0.2383	0.2952	0.037
Mof_H 	H 	0.0392	0.2549	0.2786	0.015
Mof_O 	O 	0.53014	0.82672	0.28473	-0.486
Mof_O 	O 	0.53016	0.86032	0.31768	-0.499
Mof_C 	C 	0.5399	0.8488	0.29599	0.444
Mof_C 	C 	0.56318	0.86398	0.28034	-0.157
Mof_C 	C 	0.57524	0.88726	0.29242	0.048
Mof_H 	H 	0.5676	0.8944	0.3099	0.026
Mof_C 	C 	0.59654	0.86615	0.24133	-0.166
Mof_H 	H 	0.6036	0.8584	0.2238	0.084
Mof_C 	C 	0.57368	0.85341	0.25419	0.088
Mof_H 	H 	0.5648	0.8373	0.2454	0.013
Mof_H 	H 	0.5172	0.7376	0.2947	-0.003
Mof_H 	H 	0.5405	0.778	0.2537	0.019
Mof_C 	C 	0.5197	0.7469	0.2766	-0.122
Mof_H 	H 	0.5141	0.7383	0.2952	0.032
Mof_H 	H 	0.5392	0.7549	0.2786	0.016
Mof_O 	O 	0.53014	0.32672	0.78473	-0.487
Mof_O 	O 	0.53016	0.36032	0.81768	-0.499
Mof_C 	C 	0.5399	0.3488	0.79599	0.444
Mof_C 	C 	0.56318	0.36398	0.78034	-0.157
Mof_C 	C 	0.57524	0.38726	0.79242	0.048
Mof_H 	H 	0.5676	0.3944	0.8099	0.026
Mof_C 	C 	0.59654	0.36615	0.74133	-0.167
Mof_H 	H 	0.6036	0.3584	0.7238	0.084
Mof_C 	C 	0.57368	0.35341	0.75419	0.088
Mof_H 	H 	0.5648	0.3373	0.7454	0.013
Mof_H 	H 	0.5172	0.2376	0.7947	-0.003
Mof_H 	H 	0.5405	0.278	0.7537	0.019
Mof_C 	C 	0.5197	0.2469	0.7766	-0.122
Mof_H 	H 	0.5141	0.2383	0.7952	0.032
Mof_H 	H 	0.5392	0.2549	0.7786	0.016
Mof_O 	O 	0.96986	0.82672	0.21527	-0.485
Mof_O 	O 	0.96984	0.86032	0.18232	-0.497
Mof_C 	C 	0.9601	0.8488	0.20401	0.444
Mof_C 	C 	0.93682	0.86398	0.21966	-0.156
Mof_C 	C 	0.92476	0.88726	0.20758	0.048
Mof_H 	H 	0.9324	0.8944	0.1901	0.026
Mof_C 	C 	0.90346	0.86615	0.25867	-0.166
Mof_H 	H 	0.8964	0.8584	0.2762	0.084
Mof_C 	C 	0.92632	0.85341	0.24581	0.088
Mof_H 	H 	0.9352	0.8373	0.2546	0.013
Mof_H 	H 	0.9828	0.7376	0.2053	-0.007
Mof_H 	H 	0.9595	0.778	0.2463	0.019
Mof_C 	C 	0.9803	0.7469	0.2234	-0.149
Mof_H 	H 	0.9859	0.7383	0.2048	0.036
Mof_H 	H 	0.9608	0.7549	0.2214	0.015
Mof_O 	O 	0.96986	0.32672	0.71527	-0.485
Mof_O 	O 	0.96984	0.36032	0.68232	-0.497
Mof_C 	C 	0.9601	0.3488	0.70401	0.444
Mof_C 	C 	0.93682	0.36398	0.71966	-0.157
Mof_C 	C 	0.92476	0.38726	0.70758	0.048
Mof_H 	H 	0.9324	0.3944	0.6901	0.026
Mof_C 	C 	0.90346	0.36615	0.75867	-0.166
Mof_H 	H 	0.8964	0.3584	0.7762	0.084
Mof_C 	C 	0.92632	0.35341	0.74581	0.088
Mof_H 	H 	0.9352	0.3373	0.7546	0.013
Mof_H 	H 	0.9828	0.2376	0.7053	-0.007
Mof_H 	H 	0.9595	0.278	0.7463	0.019
Mof_C 	C 	0.9803	0.2469	0.7234	-0.149
Mof_H 	H 	0.9859	0.2383	0.7048	0.036
Mof_H 	H 	0.9608	0.2549	0.7214	0.015
Mof_O 	O 	0.46986	0.82672	0.71527	-0.486
Mof_O 	O 	0.46984	0.86032	0.68232	-0.499
Mof_C 	C 	0.4601	0.8488	0.70401	0.444
Mof_C 	C 	0.43682	0.86398	0.71966	-0.157
Mof_C 	C 	0.42476	0.88726	0.70758	0.048
Mof_H 	H 	0.4324	0.8944	0.6901	0.026
Mof_C 	C 	0.40346	0.86615	0.75867	-0.166
Mof_H 	H 	0.3964	0.8584	0.7762	0.084
Mof_C 	C 	0.42632	0.85341	0.74581	0.088
Mof_H 	H 	0.4352	0.8373	0.7546	0.013
Mof_H 	H 	0.4828	0.7376	0.7053	-0.003
Mof_H 	H 	0.4595	0.778	0.7463	0.019
Mof_C 	C 	0.4803	0.7469	0.7234	-0.122
Mof_H 	H 	0.4859	0.7383	0.7048	0.032
Mof_H 	H 	0.4608	0.7549	0.7214	0.016
Mof_O 	O 	0.46986	0.32672	0.21527	-0.487
Mof_O 	O 	0.46984	0.36032	0.18232	-0.499
Mof_C 	C 	0.4601	0.3488	0.20401	0.445
Mof_C 	C 	0.43682	0.36398	0.21966	-0.158
Mof_C 	C 	0.42476	0.38726	0.20758	0.048
Mof_H 	H 	0.4324	0.3944	0.1901	0.025
Mof_C 	C 	0.40346	0.36615	0.25867	-0.167
Mof_H 	H 	0.3964	0.3584	0.2762	0.084
Mof_C 	C 	0.42632	0.35341	0.24581	0.088
Mof_H 	H 	0.4352	0.3373	0.2546	0.013
Mof_H 	H 	0.4828	0.2376	0.2053	-0.003
Mof_H 	H 	0.4595	0.278	0.2463	0.019
Mof_C 	C 	0.4803	0.2469	0.2234	-0.122
Mof_H 	H 	0.4859	0.2383	0.2048	0.032
Mof_H 	H 	0.4608	0.2549	0.2214	0.016
Mof_O 	O 	0.96986	0.17328	0.78473	-0.485
Mof_O 	O 	0.96984	0.13968	0.81768	-0.497
Mof_C 	C 	0.9601	0.1512	0.79599	0.444
Mof_C 	C 	0.93682	0.13602	0.78034	-0.157
Mof_C 	C 	0.92476	0.11274	0.79242	0.048
Mof_H 	H 	0.9324	0.1056	0.8099	0.026
Mof_C 	C 	0.90346	0.13385	0.74133	-0.166
Mof_H 	H 	0.8964	0.1416	0.7238	0.084
Mof_C 	C 	0.92632	0.14659	0.75419	0.088
Mof_H 	H 	0.9352	0.1627	0.7454	0.013
Mof_H 	H 	0.9828	0.2624	0.7947	-0.007
Mof_H 	H 	0.9595	0.222	0.7537	0.019
Mof_C 	C 	0.9803	0.2531	0.7766	-0.149
Mof_H 	H 	0.9859	0.2617	0.7952	0.036
Mof_H 	H 	0.9608	0.2451	0.7786	0.015
Mof_O 	O 	0.96986	0.67328	0.28473	-0.485
Mof_O 	O 	0.96984	0.63968	0.31768	-0.497
Mof_C 	C 	0.9601	0.6512	0.29599	0.444
Mof_C 	C 	0.93682	0.63602	0.28034	-0.157
Mof_C 	C 	0.92476	0.61274	0.29242	0.048
Mof_H 	H 	0.9324	0.6056	0.3099	0.026
Mof_C 	C 	0.90346	0.63385	0.24133	-0.166
Mof_H 	H 	0.8964	0.6416	0.2238	0.084
Mof_C 	C 	0.92632	0.64659	0.25419	0.088
Mof_H 	H 	0.9352	0.6627	0.2454	0.013
Mof_H 	H 	0.9828	0.7624	0.2947	-0.007
Mof_H 	H 	0.9595	0.722	0.2537	0.019
Mof_C 	C 	0.9803	0.7531	0.2766	-0.149
Mof_H 	H 	0.9859	0.7617	0.2952	0.036
Mof_H 	H 	0.9608	0.7451	0.2786	0.015
Mof_O 	O 	0.46986	0.17328	0.28473	-0.487
Mof_O 	O 	0.46984	0.13968	0.31768	-0.499
Mof_C 	C 	0.4601	0.1512	0.29599	0.445
Mof_C 	C 	0.43682	0.13602	0.28034	-0.158
Mof_C 	C 	0.42476	0.11274	0.29242	0.048
Mof_H 	H 	0.4324	0.1056	0.3099	0.025
Mof_C 	C 	0.40346	0.13385	0.24133	-0.167
Mof_H 	H 	0.3964	0.1416	0.2238	0.084
Mof_C 	C 	0.42632	0.14659	0.25419	0.088
Mof_H 	H 	0.4352	0.1627	0.2454	0.013
Mof_H 	H 	0.4828	0.2624	0.2947	-0.003
Mof_H 	H 	0.4595	0.222	0.2537	0.019
Mof_C 	C 	0.4803	0.2531	0.2766	-0.122
Mof_H 	H 	0.4859	0.2617	0.2952	0.032
Mof_H 	H 	0.4608	0.2451	0.2786	0.016
Mof_O 	O 	0.46986	0.67328	0.78473	-0.487
Mof_O 	O 	0.46984	0.63968	0.81768	-0.499
Mof_C 	C 	0.4601	0.6512	0.79599	0.444
Mof_C 	C 	0.43682	0.63602	0.78034	-0.157
Mof_C 	C 	0.42476	0.61274	0.79242	0.048
Mof_H 	H 	0.4324	0.6056	0.8099	0.026
Mof_C 	C 	0.40346	0.63385	0.74133	-0.167
Mof_H 	H 	0.3964	0.6416	0.7238	0.084
Mof_C 	C 	0.42632	0.64659	0.75419	0.088
Mof_H 	H 	0.4352	0.6627	0.7454	0.013
Mof_H 	H 	0.4828	0.7624	0.7947	-0.003
Mof_H 	H 	0.4595	0.722	0.7537	0.019
Mof_C 	C 	0.4803	0.7531	0.7766	-0.122
Mof_H 	H 	0.4859	0.7617	0.7952	0.032
Mof_H 	H 	0.4608	0.7451	0.7786	0.016
Mof_O 	O 	0.21527	0.03014	0.17328	-0.487
Mof_O 	O 	0.18232	0.03016	0.13968	-0.5
Mof_C 	C 	0.20401	0.0399	0.1512	0.445
Mof_C 	C 	0.21966	0.06318	0.13602	-0.158
Mof_C 	C 	0.20758	0.07524	0.11274	0.049
Mof_H 	H 	0.1901	0.0676	0.1056	0.025
Mof_C 	C 	0.25867	0.09654	0.13385	-0.167
Mof_H 	H 	0.2762	0.1036	0.1416	0.084
Mof_C 	C 	0.24581	0.07368	0.14659	0.088
Mof_H 	H 	0.2546	0.0648	0.1627	0.013
Mof_H 	H 	0.2053	0.0172	0.2624	-0.009
Mof_H 	H 	0.2463	0.0405	0.222	0.019
Mof_C 	C 	0.2234	0.0197	0.2531	-0.156
Mof_H 	H 	0.2048	0.0141	0.2617	0.037
Mof_H 	H 	0.2214	0.0392	0.2451	0.015
Mof_O 	O 	0.21527	0.53014	0.67328	-0.487
Mof_O 	O 	0.18232	0.53016	0.63968	-0.499
Mof_C 	C 	0.20401	0.5399	0.6512	0.445
Mof_C 	C 	0.21966	0.56318	0.63602	-0.158
Mof_C 	C 	0.20758	0.57524	0.61274	0.048
Mof_H 	H 	0.1901	0.5676	0.6056	0.025
Mof_C 	C 	0.25867	0.59654	0.63385	-0.167
Mof_H 	H 	0.2762	0.6036	0.6416	0.084
Mof_C 	C 	0.24581	0.57368	0.64659	0.088
Mof_H 	H 	0.2546	0.5648	0.6627	0.013
Mof_H 	H 	0.2053	0.5172	0.7624	-0.003
Mof_H 	H 	0.2463	0.5405	0.722	0.019
Mof_C 	C 	0.2234	0.5197	0.7531	-0.122
Mof_H 	H 	0.2048	0.5141	0.7617	0.032
Mof_H 	H 	0.2214	0.5392	0.7451	0.016
Mof_O 	O 	0.71527	0.03014	0.67328	-0.487
Mof_O 	O 	0.68232	0.03016	0.63968	-0.5
Mof_C 	C 	0.70401	0.0399	0.6512	0.445
Mof_C 	C 	0.71966	0.06318	0.63602	-0.158
Mof_C 	C 	0.70758	0.07524	0.61274	0.048
Mof_H 	H 	0.6901	0.0676	0.6056	0.025
Mof_C 	C 	0.75867	0.09654	0.63385	-0.167
Mof_H 	H 	0.7762	0.1036	0.6416	0.084
Mof_C 	C 	0.74581	0.07368	0.64659	0.088
Mof_H 	H 	0.7546	0.0648	0.6627	0.013
Mof_H 	H 	0.7053	0.0172	0.7624	-0.009
Mof_H 	H 	0.7463	0.0405	0.722	0.019
Mof_C 	C 	0.7234	0.0197	0.7531	-0.156
Mof_H 	H 	0.7048	0.0141	0.7617	0.037
Mof_H 	H 	0.7214	0.0392	0.7451	0.015
Mof_O 	O 	0.71527	0.53014	0.17328	-0.487
Mof_O 	O 	0.68232	0.53016	0.13968	-0.499
Mof_C 	C 	0.70401	0.5399	0.1512	0.445
Mof_C 	C 	0.71966	0.56318	0.13602	-0.158
Mof_C 	C 	0.70758	0.57524	0.11274	0.048
Mof_H 	H 	0.6901	0.5676	0.1056	0.025
Mof_C 	C 	0.75867	0.59654	0.13385	-0.167
Mof_H 	H 	0.7762	0.6036	0.1416	0.084
Mof_C 	C 	0.74581	0.57368	0.14659	0.088
Mof_H 	H 	0.7546	0.5648	0.1627	0.013
Mof_H 	H 	0.7053	0.5172	0.2624	-0.003
Mof_H 	H 	0.7463	0.5405	0.222	0.019
Mof_C 	C 	0.7234	0.5197	0.2531	-0.122
Mof_H 	H 	0.7048	0.5141	0.2617	0.032
Mof_H 	H 	0.7214	0.5392	0.2451	0.016
Mof_O 	O 	0.78473	0.03014	0.82672	-0.487
Mof_O 	O 	0.81768	0.03016	0.86032	-0.5
Mof_C 	C 	0.79599	0.0399	0.8488	0.444
Mof_C 	C 	0.78034	0.06318	0.86398	-0.158
Mof_C 	C 	0.79242	0.07524	0.88726	0.048
Mof_H 	H 	0.8099	0.0676	0.8944	0.026
Mof_C 	C 	0.74133	0.09654	0.86615	-0.167
Mof_H 	H 	0.7238	0.1036	0.8584	0.084
Mof_C 	C 	0.75419	0.07368	0.85341	0.088
Mof_H 	H 	0.7454	0.0648	0.8373	0.013
Mof_H 	H 	0.7947	0.0172	0.7376	-0.009
Mof_H 	H 	0.7537	0.0405	0.778	0.019
Mof_C 	C 	0.7766	0.0197	0.7469	-0.156
Mof_H 	H 	0.7952	0.0141	0.7383	0.037
Mof_H 	H 	0.7786	0.0392	0.7549	0.015
Mof_O 	O 	0.78473	0.53014	0.32672	-0.487
Mof_O 	O 	0.81768	0.53016	0.36032	-0.499
Mof_C 	C 	0.79599	0.5399	0.3488	0.444
Mof_C 	C 	0.78034	0.56318	0.36398	-0.157
Mof_C 	C 	0.79242	0.57524	0.38726	0.048
Mof_H 	H 	0.8099	0.5676	0.3944	0.026
Mof_C 	C 	0.74133	0.59654	0.36615	-0.167
Mof_H 	H 	0.7238	0.6036	0.3584	0.084
Mof_C 	C 	0.75419	0.57368	0.35341	0.088
Mof_H 	H 	0.7454	0.5648	0.3373	0.013
Mof_H 	H 	0.7947	0.5172	0.2376	-0.003
Mof_H 	H 	0.7537	0.5405	0.278	0.019
Mof_C 	C 	0.7766	0.5197	0.2469	-0.122
Mof_H 	H 	0.7952	0.5141	0.2383	0.032
Mof_H 	H 	0.7786	0.5392	0.2549	0.016
Mof_O 	O 	0.28473	0.03014	0.32672	-0.487
Mof_O 	O 	0.31768	0.03016	0.36032	-0.5
Mof_C 	C 	0.29599	0.0399	0.3488	0.445
Mof_C 	C 	0.28034	0.06318	0.36398	-0.158
Mof_C 	C 	0.29242	0.07524	0.38726	0.048
Mof_H 	H 	0.3099	0.0676	0.3944	0.025
Mof_C 	C 	0.24133	0.09654	0.36615	-0.167
Mof_H 	H 	0.2238	0.1036	0.3584	0.084
Mof_C 	C 	0.25419	0.07368	0.35341	0.088
Mof_H 	H 	0.2454	0.0648	0.3373	0.013
Mof_H 	H 	0.2947	0.0172	0.2376	-0.009
Mof_H 	H 	0.2537	0.0405	0.278	0.019
Mof_C 	C 	0.2766	0.0197	0.2469	-0.156
Mof_H 	H 	0.2952	0.0141	0.2383	0.037
Mof_H 	H 	0.2786	0.0392	0.2549	0.015
Mof_O 	O 	0.28473	0.53014	0.82672	-0.486
Mof_O 	O 	0.31768	0.53016	0.86032	-0.499
Mof_C 	C 	0.29599	0.5399	0.8488	0.444
Mof_C 	C 	0.28034	0.56318	0.86398	-0.157
Mof_C 	C 	0.29242	0.57524	0.88726	0.048
Mof_H 	H 	0.3099	0.5676	0.8944	0.026
Mof_C 	C 	0.24133	0.59654	0.86615	-0.166
Mof_H 	H 	0.2238	0.6036	0.8584	0.084
Mof_C 	C 	0.25419	0.57368	0.85341	0.088
Mof_H 	H 	0.2454	0.5648	0.8373	0.013
Mof_H 	H 	0.2947	0.5172	0.7376	-0.003
Mof_H 	H 	0.2537	0.5405	0.778	0.019
Mof_C 	C 	0.2766	0.5197	0.7469	-0.122
Mof_H 	H 	0.2952	0.5141	0.7383	0.032
Mof_H 	H 	0.2786	0.5392	0.7549	0.016
Mof_O 	O 	0.21527	0.96986	0.82672	-0.485
Mof_O 	O 	0.18232	0.96984	0.86032	-0.497
Mof_C 	C 	0.20401	0.9601	0.8488	0.444
Mof_C 	C 	0.21966	0.93682	0.86398	-0.156
Mof_C 	C 	0.20758	0.92476	0.88726	0.048
Mof_H 	H 	0.1901	0.9324	0.8944	0.026
Mof_C 	C 	0.25867	0.90346	0.86615	-0.166
Mof_H 	H 	0.2762	0.8964	0.8584	0.084
Mof_C 	C 	0.24581	0.92632	0.85341	0.088
Mof_H 	H 	0.2546	0.9352	0.8373	0.013
Mof_H 	H 	0.2053	0.9828	0.7376	-0.007
Mof_H 	H 	0.2463	0.9595	0.778	0.019
Mof_C 	C 	0.2234	0.9803	0.7469	-0.149
Mof_H 	H 	0.2048	0.9859	0.7383	0.036
Mof_H 	H 	0.2214	0.9608	0.7549	0.015
Mof_O 	O 	0.21527	0.46986	0.32672	-0.487
Mof_O 	O 	0.18232	0.46984	0.36032	-0.499
Mof_C 	C 	0.20401	0.4601	0.3488	0.445
Mof_C 	C 	0.21966	0.43682	0.36398	-0.158
Mof_C 	C 	0.20758	0.42476	0.38726	0.048
Mof_H 	H 	0.1901	0.4324	0.3944	0.025
Mof_C 	C 	0.25867	0.40346	0.36615	-0.167
Mof_H 	H 	0.2762	0.3964	0.3584	0.084
Mof_C 	C 	0.24581	0.42632	0.35341	0.088
Mof_H 	H 	0.2546	0.4352	0.3373	0.013
Mof_H 	H 	0.2053	0.4828	0.2376	-0.003
Mof_H 	H 	0.2463	0.4595	0.278	0.019
Mof_C 	C 	0.2234	0.4803	0.2469	-0.122
Mof_H 	H 	0.2048	0.4859	0.2383	0.032
Mof_H 	H 	0.2214	0.4608	0.2549	0.016
Mof_O 	O 	0.71527	0.96986	0.32672	-0.485
Mof_O 	O 	0.68232	0.96984	0.36032	-0.497
Mof_C 	C 	0.70401	0.9601	0.3488	0.444
Mof_C 	C 	0.71966	0.93682	0.36398	-0.157
Mof_C 	C 	0.70758	0.92476	0.38726	0.048
Mof_H 	H 	0.6901	0.9324	0.3944	0.026
Mof_C 	C 	0.75867	0.90346	0.36615	-0.166
Mof_H 	H 	0.7762	0.8964	0.3584	0.084
Mof_C 	C 	0.74581	0.92632	0.35341	0.088
Mof_H 	H 	0.7546	0.9352	0.3373	0.013
Mof_H 	H 	0.7053	0.9828	0.2376	-0.007
Mof_H 	H 	0.7463	0.9595	0.278	0.019
Mof_C 	C 	0.7234	0.9803	0.2469	-0.149
Mof_H 	H 	0.7048	0.9859	0.2383	0.036
Mof_H 	H 	0.7214	0.9608	0.2549	0.015
Mof_O 	O 	0.71527	0.46986	0.82672	-0.486
Mof_O 	O 	0.68232	0.46984	0.86032	-0.499
Mof_C 	C 	0.70401	0.4601	0.8488	0.444
Mof_C 	C 	0.71966	0.43682	0.86398	-0.157
Mof_C 	C 	0.70758	0.42476	0.88726	0.048
Mof_H 	H 	0.6901	0.4324	0.8944	0.026
Mof_C 	C 	0.75867	0.40346	0.86615	-0.166
Mof_H 	H 	0.7762	0.3964	0.8584	0.084
Mof_C 	C 	0.74581	0.42632	0.85341	0.088
Mof_H 	H 	0.7546	0.4352	0.8373	0.013
Mof_H 	H 	0.7053	0.4828	0.7376	-0.003
Mof_H 	H 	0.7463	0.4595	0.778	0.019
Mof_C 	C 	0.7234	0.4803	0.7469	-0.122
Mof_H 	H 	0.7048	0.4859	0.7383	0.032
Mof_H 	H 	0.7214	0.4608	0.7549	0.016
Mof_O 	O 	0.78473	0.96986	0.17328	-0.485
Mof_O 	O 	0.81768	0.96984	0.13968	-0.497
Mof_C 	C 	0.79599	0.9601	0.1512	0.444
Mof_C 	C 	0.78034	0.93682	0.13602	-0.157
Mof_C 	C 	0.79242	0.92476	0.11274	0.048
Mof_H 	H 	0.8099	0.9324	0.1056	0.026
Mof_C 	C 	0.74133	0.90346	0.13385	-0.166
Mof_H 	H 	0.7238	0.8964	0.1416	0.084
Mof_C 	C 	0.75419	0.92632	0.14659	0.088
Mof_H 	H 	0.7454	0.9352	0.1627	0.013
Mof_H 	H 	0.7947	0.9828	0.2624	-0.007
Mof_H 	H 	0.7537	0.9595	0.222	0.019
Mof_C 	C 	0.7766	0.9803	0.2531	-0.149
Mof_H 	H 	0.7952	0.9859	0.2617	0.036
Mof_H 	H 	0.7786	0.9608	0.2451	0.015
Mof_O 	O 	0.78473	0.46986	0.67328	-0.487
Mof_O 	O 	0.81768	0.46984	0.63968	-0.499
Mof_C 	C 	0.79599	0.4601	0.6512	0.444
Mof_C 	C 	0.78034	0.43682	0.63602	-0.157
Mof_C 	C 	0.79242	0.42476	0.61274	0.048
Mof_H 	H 	0.8099	0.4324	0.6056	0.026
Mof_C 	C 	0.74133	0.40346	0.63385	-0.167
Mof_H 	H 	0.7238	0.3964	0.6416	0.084
Mof_C 	C 	0.75419	0.42632	0.64659	0.088
Mof_H 	H 	0.7454	0.4352	0.6627	0.013
Mof_H 	H 	0.7947	0.4828	0.7624	-0.003
Mof_H 	H 	0.7537	0.4595	0.722	0.019
Mof_C 	C 	0.7766	0.4803	0.7531	-0.122
Mof_H 	H 	0.7952	0.4859	0.7617	0.032
Mof_H 	H 	0.7786	0.4608	0.7451	0.016
Mof_O 	O 	0.28473	0.96986	0.67328	-0.485
Mof_O 	O 	0.31768	0.96984	0.63968	-0.497
Mof_C 	C 	0.29599	0.9601	0.6512	0.444
Mof_C 	C 	0.28034	0.93682	0.63602	-0.157
Mof_C 	C 	0.29242	0.92476	0.61274	0.048
Mof_H 	H 	0.3099	0.9324	0.6056	0.026
Mof_C 	C 	0.24133	0.90346	0.63385	-0.166
Mof_H 	H 	0.2238	0.8964	0.6416	0.084
Mof_C 	C 	0.25419	0.92632	0.64659	0.088
Mof_H 	H 	0.2454	0.9352	0.6627	0.013
Mof_H 	H 	0.2947	0.9828	0.7624	-0.007
Mof_H 	H 	0.2537	0.9595	0.722	0.019
Mof_C 	C 	0.2766	0.9803	0.7531	-0.149
Mof_H 	H 	0.2952	0.9859	0.7617	0.036
Mof_H 	H 	0.2786	0.9608	0.7451	0.015
Mof_O 	O 	0.28473	0.46986	0.17328	-0.487
Mof_O 	O 	0.31768	0.46984	0.13968	-0.499
Mof_C 	C 	0.29599	0.4601	0.1512	0.445
Mof_C 	C 	0.28034	0.43682	0.13602	-0.158
Mof_C 	C 	0.29242	0.42476	0.11274	0.048
Mof_H 	H 	0.3099	0.4324	0.1056	0.025
Mof_C 	C 	0.24133	0.40346	0.13385	-0.167
Mof_H 	H 	0.2238	0.3964	0.1416	0.084
Mof_C 	C 	0.25419	0.42632	0.14659	0.088
Mof_H 	H 	0.2454	0.4352	0.1627	0.013
Mof_H 	H 	0.2947	0.4828	0.2624	-0.003
Mof_H 	H 	0.2537	0.4595	0.222	0.019
Mof_C 	C 	0.2766	0.4803	0.2531	-0.122
Mof_H 	H 	0.2952	0.4859	0.2617	0.032
Mof_H 	H 	0.2786	0.4608	0.2451	0.016
Mof_O 	O 	0.21527	0.17328	0.96986	-0.485
Mof_O 	O 	0.18232	0.13968	0.96984	-0.498
Mof_C 	C 	0.20401	0.1512	0.9601	0.444
Mof_C 	C 	0.21966	0.13602	0.93682	-0.157
Mof_C 	C 	0.20758	0.11274	0.92476	0.048
Mof_H 	H 	0.1901	0.1056	0.9324	0.026
Mof_C 	C 	0.25867	0.13385	0.90346	-0.166
Mof_H 	H 	0.2762	0.1416	0.8964	0.084
Mof_C 	C 	0.24581	0.14659	0.92632	0.088
Mof_H 	H 	0.2546	0.1627	0.9352	0.013
Mof_H 	H 	0.2053	0.2624	0.9828	-0.007
Mof_H 	H 	0.2463	0.222	0.9595	0.019
Mof_C 	C 	0.2234	0.2531	0.9803	-0.149
Mof_H 	H 	0.2048	0.2617	0.9859	0.036
Mof_H 	H 	0.2214	0.2451	0.9608	0.015
Mof_O 	O 	0.21527	0.67328	0.46986	-0.487
Mof_O 	O 	0.18232	0.63968	0.46984	-0.499
Mof_C 	C 	0.20401	0.6512	0.4601	0.445
Mof_C 	C 	0.21966	0.63602	0.43682	-0.158
Mof_C 	C 	0.20758	0.61274	0.42476	0.048
Mof_H 	H 	0.1901	0.6056	0.4324	0.025
Mof_C 	C 	0.25867	0.63385	0.40346	-0.167
Mof_H 	H 	0.2762	0.6416	0.3964	0.084
Mof_C 	C 	0.24581	0.64659	0.42632	0.088
Mof_H 	H 	0.2546	0.6627	0.4352	0.013
Mof_H 	H 	0.2053	0.7624	0.4828	-0.003
Mof_H 	H 	0.2463	0.722	0.4595	0.019
Mof_C 	C 	0.2234	0.7531	0.4803	-0.122
Mof_H 	H 	0.2048	0.7617	0.4859	0.032
Mof_H 	H 	0.2214	0.7451	0.4608	0.016
Mof_O 	O 	0.71527	0.17328	0.46986	-0.487
Mof_O 	O 	0.68232	0.13968	0.46984	-0.499
Mof_C 	C 	0.70401	0.1512	0.4601	0.445
Mof_C 	C 	0.71966	0.13602	0.43682	-0.158
Mof_C 	C 	0.70758	0.11274	0.42476	0.048
Mof_H 	H 	0.6901	0.1056	0.4324	0.025
Mof_C 	C 	0.75867	0.13385	0.40346	-0.167
Mof_H 	H 	0.7762	0.1416	0.3964	0.084
Mof_C 	C 	0.74581	0.14659	0.42632	0.088
Mof_H 	H 	0.7546	0.1627	0.4352	0.013
Mof_H 	H 	0.7053	0.2624	0.4828	-0.003
Mof_H 	H 	0.7463	0.222	0.4595	0.019
Mof_C 	C 	0.7234	0.2531	0.4803	-0.122
Mof_H 	H 	0.7048	0.2617	0.4859	0.032
Mof_H 	H 	0.7214	0.2451	0.4608	0.016
Mof_O 	O 	0.71527	0.67328	0.96986	-0.485
Mof_O 	O 	0.68232	0.63968	0.96984	-0.497
Mof_C 	C 	0.70401	0.6512	0.9601	0.444
Mof_C 	C 	0.71966	0.63602	0.93682	-0.157
Mof_C 	C 	0.70758	0.61274	0.92476	0.048
Mof_H 	H 	0.6901	0.6056	0.9324	0.026
Mof_C 	C 	0.75867	0.63385	0.90346	-0.166
Mof_H 	H 	0.7762	0.6416	0.8964	0.084
Mof_C 	C 	0.74581	0.64659	0.92632	0.088
Mof_H 	H 	0.7546	0.6627	0.9352	0.013
Mof_H 	H 	0.7053	0.7624	0.9828	-0.007
Mof_H 	H 	0.7463	0.722	0.9595	0.019
Mof_C 	C 	0.7234	0.7531	0.9803	-0.149
Mof_H 	H 	0.7048	0.7617	0.9859	0.036
Mof_H 	H 	0.7214	0.7451	0.9608	0.015
Mof_O 	O 	0.78473	0.82672	0.96986	-0.485
Mof_O 	O 	0.81768	0.86032	0.96984	-0.497
Mof_C 	C 	0.79599	0.8488	0.9601	0.444
Mof_C 	C 	0.78034	0.86398	0.93682	-0.156
Mof_C 	C 	0.79242	0.88726	0.92476	0.047
Mof_H 	H 	0.8099	0.8944	0.9324	0.026
Mof_C 	C 	0.74133	0.86615	0.90346	-0.166
Mof_H 	H 	0.7238	0.8584	0.8964	0.084
Mof_C 	C 	0.75419	0.85341	0.92632	0.087
Mof_H 	H 	0.7454	0.8373	0.9352	0.014
Mof_H 	H 	0.7947	0.7376	0.9828	-0.007
Mof_H 	H 	0.7537	0.778	0.9595	0.019
Mof_C 	C 	0.7766	0.7469	0.9803	-0.149
Mof_H 	H 	0.7952	0.7383	0.9859	0.036
Mof_H 	H 	0.7786	0.7549	0.9608	0.015
Mof_O 	O 	0.78473	0.32672	0.46986	-0.487
Mof_O 	O 	0.81768	0.36032	0.46984	-0.499
Mof_C 	C 	0.79599	0.3488	0.4601	0.444
Mof_C 	C 	0.78034	0.36398	0.43682	-0.157
Mof_C 	C 	0.79242	0.38726	0.42476	0.048
Mof_H 	H 	0.8099	0.3944	0.4324	0.026
Mof_C 	C 	0.74133	0.36615	0.40346	-0.167
Mof_H 	H 	0.7238	0.3584	0.3964	0.084
Mof_C 	C 	0.75419	0.35341	0.42632	0.088
Mof_H 	H 	0.7454	0.3373	0.4352	0.013
Mof_H 	H 	0.7947	0.2376	0.4828	-0.003
Mof_H 	H 	0.7537	0.278	0.4595	0.019
Mof_C 	C 	0.7766	0.2469	0.4803	-0.122
Mof_H 	H 	0.7952	0.2383	0.4859	0.032
Mof_H 	H 	0.7786	0.2549	0.4608	0.016
Mof_O 	O 	0.28473	0.82672	0.46986	-0.486
Mof_O 	O 	0.31768	0.86032	0.46984	-0.499
Mof_C 	C 	0.29599	0.8488	0.4601	0.444
Mof_C 	C 	0.28034	0.86398	0.43682	-0.157
Mof_C 	C 	0.29242	0.88726	0.42476	0.048
Mof_H 	H 	0.3099	0.8944	0.4324	0.026
Mof_C 	C 	0.24133	0.86615	0.40346	-0.166
Mof_H 	H 	0.2238	0.8584	0.3964	0.084
Mof_C 	C 	0.25419	0.85341	0.42632	0.088
Mof_H 	H 	0.2454	0.8373	0.4352	0.013
Mof_H 	H 	0.2947	0.7376	0.4828	-0.003
Mof_H 	H 	0.2537	0.778	0.4595	0.019
Mof_C 	C 	0.2766	0.7469	0.4803	-0.122
Mof_H 	H 	0.2952	0.7383	0.4859	0.032
Mof_H 	H 	0.2786	0.7549	0.4608	0.016
Mof_O 	O 	0.28473	0.32672	0.96986	-0.485
Mof_O 	O 	0.31768	0.36032	0.96984	-0.497
Mof_C 	C 	0.29599	0.3488	0.9601	0.444
Mof_C 	C 	0.28034	0.36398	0.93682	-0.157
Mof_C 	C 	0.29242	0.38726	0.92476	0.048
Mof_H 	H 	0.3099	0.3944	0.9324	0.026
Mof_C 	C 	0.24133	0.36615	0.90346	-0.166
Mof_H 	H 	0.2238	0.3584	0.8964	0.084
Mof_C 	C 	0.25419	0.35341	0.92632	0.088
Mof_H 	H 	0.2454	0.3373	0.9352	0.013
Mof_H 	H 	0.2947	0.2376	0.9828	-0.007
Mof_H 	H 	0.2537	0.278	0.9595	0.019
Mof_C 	C 	0.2766	0.2469	0.9803	-0.149
Mof_H 	H 	0.2952	0.2383	0.9859	0.036
Mof_H 	H 	0.2786	0.2549	0.9608	0.015
Mof_O 	O 	0.21527	0.82672	0.03014	-0.487
Mof_O 	O 	0.18232	0.86032	0.03016	-0.5
Mof_C 	C 	0.20401	0.8488	0.0399	0.445
Mof_C 	C 	0.21966	0.86398	0.06318	-0.158
Mof_C 	C 	0.20758	0.88726	0.07524	0.048
Mof_H 	H 	0.1901	0.8944	0.0676	0.025
Mof_C 	C 	0.25867	0.86615	0.09654	-0.167
Mof_H 	H 	0.2762	0.8584	0.1036	0.084
Mof_C 	C 	0.24581	0.85341	0.07368	0.088
Mof_H 	H 	0.2546	0.8373	0.0648	0.013
Mof_H 	H 	0.2053	0.7376	0.0172	-0.009
Mof_H 	H 	0.2463	0.778	0.0405	0.019
Mof_C 	C 	0.2234	0.7469	0.0197	-0.156
Mof_H 	H 	0.2048	0.7383	0.0141	0.037
Mof_H 	H 	0.2214	0.7549	0.0392	0.015
Mof_O 	O 	0.21527	0.32672	0.53014	-0.487
Mof_O 	O 	0.18232	0.36032	0.53016	-0.499
Mof_C 	C 	0.20401	0.3488	0.5399	0.445
Mof_C 	C 	0.21966	0.36398	0.56318	-0.158
Mof_C 	C 	0.20758	0.38726	0.57524	0.048
Mof_H 	H 	0.1901	0.3944	0.5676	0.025
Mof_C 	C 	0.25867	0.36615	0.59654	-0.167
Mof_H 	H 	0.2762	0.3584	0.6036	0.084
Mof_C 	C 	0.24581	0.35341	0.57368	0.088
Mof_H 	H 	0.2546	0.3373	0.5648	0.013
Mof_H 	H 	0.2053	0.2376	0.5172	-0.003
Mof_H 	H 	0.2463	0.278	0.5405	0.019
Mof_C 	C 	0.2234	0.2469	0.5197	-0.122
Mof_H 	H 	0.2048	0.2383	0.5141	0.032
Mof_H 	H 	0.2214	0.2549	0.5392	0.016
Mof_O 	O 	0.71527	0.82672	0.53014	-0.486
Mof_O 	O 	0.68232	0.86032	0.53016	-0.499
Mof_C 	C 	0.70401	0.8488	0.5399	0.444
Mof_C 	C 	0.71966	0.86398	0.56318	-0.157
Mof_C 	C 	0.70758	0.88726	0.57524	0.048
Mof_H 	H 	0.6901	0.8944	0.5676	0.026
Mof_C 	C 	0.75867	0.86615	0.59654	-0.166
Mof_H 	H 	0.7762	0.8584	0.6036	0.084
Mof_C 	C 	0.74581	0.85341	0.57368	0.088
Mof_H 	H 	0.7546	0.8373	0.5648	0.013
Mof_H 	H 	0.7053	0.7376	0.5172	-0.003
Mof_H 	H 	0.7463	0.778	0.5405	0.019
Mof_C 	C 	0.7234	0.7469	0.5197	-0.122
Mof_H 	H 	0.7048	0.7383	0.5141	0.032
Mof_H 	H 	0.7214	0.7549	0.5392	0.016
Mof_O 	O 	0.71527	0.32672	0.03014	-0.487
Mof_O 	O 	0.68232	0.36032	0.03016	-0.5
Mof_C 	C 	0.70401	0.3488	0.0399	0.445
Mof_C 	C 	0.71966	0.36398	0.06318	-0.158
Mof_C 	C 	0.70758	0.38726	0.07524	0.048
Mof_H 	H 	0.6901	0.3944	0.0676	0.025
Mof_C 	C 	0.75867	0.36615	0.09654	-0.167
Mof_H 	H 	0.7762	0.3584	0.1036	0.084
Mof_C 	C 	0.74581	0.35341	0.07368	0.088
Mof_H 	H 	0.7546	0.3373	0.0648	0.013
Mof_H 	H 	0.7053	0.2376	0.0172	-0.009
Mof_H 	H 	0.7463	0.278	0.0405	0.019
Mof_C 	C 	0.7234	0.2469	0.0197	-0.156
Mof_H 	H 	0.7048	0.2383	0.0141	0.037
Mof_H 	H 	0.7214	0.2549	0.0392	0.015
Mof_O 	O 	0.78473	0.17328	0.03014	-0.487
Mof_O 	O 	0.81768	0.13968	0.03016	-0.5
Mof_C 	C 	0.79599	0.1512	0.0399	0.445
Mof_C 	C 	0.78034	0.13602	0.06318	-0.158
Mof_C 	C 	0.79242	0.11274	0.07524	0.049
Mof_H 	H 	0.8099	0.1056	0.0676	0.025
Mof_C 	C 	0.74133	0.13385	0.09654	-0.167
Mof_H 	H 	0.7238	0.1416	0.1036	0.084
Mof_C 	C 	0.75419	0.14659	0.07368	0.088
Mof_H 	H 	0.7454	0.1627	0.0648	0.013
Mof_H 	H 	0.7947	0.2624	0.0172	-0.009
Mof_H 	H 	0.7537	0.222	0.0405	0.019
Mof_C 	C 	0.7766	0.2531	0.0197	-0.156
Mof_H 	H 	0.7952	0.2617	0.0141	0.037
Mof_H 	H 	0.7786	0.2451	0.0392	0.015
Mof_O 	O 	0.78473	0.67328	0.53014	-0.487
Mof_O 	O 	0.81768	0.63968	0.53016	-0.499
Mof_C 	C 	0.79599	0.6512	0.5399	0.444
Mof_C 	C 	0.78034	0.63602	0.56318	-0.157
Mof_C 	C 	0.79242	0.61274	0.57524	0.048
Mof_H 	H 	0.8099	0.6056	0.5676	0.026
Mof_C 	C 	0.74133	0.63385	0.59654	-0.167
Mof_H 	H 	0.7238	0.6416	0.6036	0.084
Mof_C 	C 	0.75419	0.64659	0.57368	0.088
Mof_H 	H 	0.7454	0.6627	0.5648	0.013
Mof_H 	H 	0.7947	0.7624	0.5172	-0.003
Mof_H 	H 	0.7537	0.722	0.5405	0.019
Mof_C 	C 	0.7766	0.7531	0.5197	-0.122
Mof_H 	H 	0.7952	0.7617	0.5141	0.032
Mof_H 	H 	0.7786	0.7451	0.5392	0.016
Mof_O 	O 	0.28473	0.17328	0.53014	-0.487
Mof_O 	O 	0.31768	0.13968	0.53016	-0.499
Mof_C 	C 	0.29599	0.1512	0.5399	0.445
Mof_C 	C 	0.28034	0.13602	0.56318	-0.158
Mof_C 	C 	0.29242	0.11274	0.57524	0.048
Mof_H 	H 	0.3099	0.1056	0.5676	0.025
Mof_C 	C 	0.24133	0.13385	0.59654	-0.167
Mof_H 	H 	0.2238	0.1416	0.6036	0.084
Mof_C 	C 	0.25419	0.14659	0.57368	0.088
Mof_H 	H 	0.2454	0.1627	0.5648	0.013
Mof_H 	H 	0.2947	0.2624	0.5172	-0.003
Mof_H 	H 	0.2537	0.222	0.5405	0.019
Mof_C 	C 	0.2766	0.2531	0.5197	-0.122
Mof_H 	H 	0.2952	0.2617	0.5141	0.032
Mof_H 	H 	0.2786	0.2451	0.5392	0.016
Mof_O 	O 	0.28473	0.67328	0.03014	-0.487
Mof_O 	O 	0.31768	0.63968	0.03016	-0.5
Mof_C 	C 	0.29599	0.6512	0.0399	0.445
Mof_C 	C 	0.28034	0.63602	0.06318	-0.158
Mof_C 	C 	0.29242	0.61274	0.07524	0.048
Mof_H 	H 	0.3099	0.6056	0.0676	0.025
Mof_C 	C 	0.24133	0.63385	0.09654	-0.167
Mof_H 	H 	0.2238	0.6416	0.1036	0.084
Mof_C 	C 	0.25419	0.64659	0.07368	0.088
Mof_H 	H 	0.2454	0.6627	0.0648	0.013
Mof_H 	H 	0.2947	0.7624	0.0172	-0.009
Mof_H 	H 	0.2537	0.722	0.0405	0.019
Mof_C 	C 	0.2766	0.7531	0.0197	-0.156
Mof_H 	H 	0.2952	0.7617	0.0141	0.037
Mof_H 	H 	0.2786	0.7451	0.0392	0.015
Mof_O 	O 	0.17328	0.03014	0.78473	-0.487
Mof_O 	O 	0.13968	0.03016	0.81768	-0.5
Mof_C 	C 	0.1512	0.0399	0.79599	0.445
Mof_C 	C 	0.13602	0.06318	0.78034	-0.158
Mof_C 	C 	0.11274	0.07524	0.79242	0.049
Mof_H 	H 	0.1056	0.0676	0.8099	0.025
Mof_C 	C 	0.13385	0.09654	0.74133	-0.167
Mof_H 	H 	0.1416	0.1036	0.7238	0.084
Mof_C 	C 	0.14659	0.07368	0.75419	0.088
Mof_H 	H 	0.1627	0.0648	0.7454	0.013
Mof_H 	H 	0.2624	0.0172	0.7947	-0.009
Mof_H 	H 	0.222	0.0405	0.7537	0.019
Mof_C 	C 	0.2531	0.0197	0.7766	-0.156
Mof_H 	H 	0.2617	0.0141	0.7952	0.037
Mof_H 	H 	0.2451	0.0392	0.7786	0.015
Mof_O 	O 	0.17328	0.53014	0.28473	-0.487
Mof_O 	O 	0.13968	0.53016	0.31768	-0.499
Mof_C 	C 	0.1512	0.5399	0.29599	0.445
Mof_C 	C 	0.13602	0.56318	0.28034	-0.158
Mof_C 	C 	0.11274	0.57524	0.29242	0.048
Mof_H 	H 	0.1056	0.5676	0.3099	0.025
Mof_C 	C 	0.13385	0.59654	0.24133	-0.167
Mof_H 	H 	0.1416	0.6036	0.2238	0.084
Mof_C 	C 	0.14659	0.57368	0.25419	0.088
Mof_H 	H 	0.1627	0.5648	0.2454	0.013
Mof_H 	H 	0.2624	0.5172	0.2947	-0.003
Mof_H 	H 	0.222	0.5405	0.2537	0.019
Mof_C 	C 	0.2531	0.5197	0.2766	-0.122
Mof_H 	H 	0.2617	0.5141	0.2952	0.032
Mof_H 	H 	0.2451	0.5392	0.2786	0.016
Mof_O 	O 	0.67328	0.03014	0.28473	-0.487
Mof_O 	O 	0.63968	0.03016	0.31768	-0.5
Mof_C 	C 	0.6512	0.0399	0.29599	0.445
Mof_C 	C 	0.63602	0.06318	0.28034	-0.158
Mof_C 	C 	0.61274	0.07524	0.29242	0.048
Mof_H 	H 	0.6056	0.0676	0.3099	0.025
Mof_C 	C 	0.63385	0.09654	0.24133	-0.167
Mof_H 	H 	0.6416	0.1036	0.2238	0.084
Mof_C 	C 	0.64659	0.07368	0.25419	0.088
Mof_H 	H 	0.6627	0.0648	0.2454	0.013
Mof_H 	H 	0.7624	0.0172	0.2947	-0.009
Mof_H 	H 	0.722	0.0405	0.2537	0.019
Mof_C 	C 	0.7531	0.0197	0.2766	-0.156
Mof_H 	H 	0.7617	0.0141	0.2952	0.037
Mof_H 	H 	0.7451	0.0392	0.2786	0.015
Mof_O 	O 	0.67328	0.53014	0.78473	-0.487
Mof_O 	O 	0.63968	0.53016	0.81768	-0.499
Mof_C 	C 	0.6512	0.5399	0.79599	0.444
Mof_C 	C 	0.63602	0.56318	0.78034	-0.157
Mof_C 	C 	0.61274	0.57524	0.79242	0.048
Mof_H 	H 	0.6056	0.5676	0.8099	0.026
Mof_C 	C 	0.63385	0.59654	0.74133	-0.167
Mof_H 	H 	0.6416	0.6036	0.7238	0.084
Mof_C 	C 	0.64659	0.57368	0.75419	0.088
Mof_H 	H 	0.6627	0.5648	0.7454	0.013
Mof_H 	H 	0.7624	0.5172	0.7947	-0.003
Mof_H 	H 	0.722	0.5405	0.7537	0.019
Mof_C 	C 	0.7531	0.5197	0.7766	-0.122
Mof_H 	H 	0.7617	0.5141	0.7952	0.032
Mof_H 	H 	0.7451	0.5392	0.7786	0.016
Mof_O 	O 	0.82672	0.03014	0.21527	-0.487
Mof_O 	O 	0.86032	0.03016	0.18232	-0.5
Mof_C 	C 	0.8488	0.0399	0.20401	0.445
Mof_C 	C 	0.86398	0.06318	0.21966	-0.158
Mof_C 	C 	0.88726	0.07524	0.20758	0.048
Mof_H 	H 	0.8944	0.0676	0.1901	0.025
Mof_C 	C 	0.86615	0.09654	0.25867	-0.167
Mof_H 	H 	0.8584	0.1036	0.2762	0.084
Mof_C 	C 	0.85341	0.07368	0.24581	0.088
Mof_H 	H 	0.8373	0.0648	0.2546	0.013
Mof_H 	H 	0.7376	0.0172	0.2053	-0.009
Mof_H 	H 	0.778	0.0405	0.2463	0.019
Mof_C 	C 	0.7469	0.0197	0.2234	-0.156
Mof_H 	H 	0.7383	0.0141	0.2048	0.037
Mof_H 	H 	0.7549	0.0392	0.2214	0.015
Mof_O 	O 	0.82672	0.53014	0.71527	-0.486
Mof_O 	O 	0.86032	0.53016	0.68232	-0.499
Mof_C 	C 	0.8488	0.5399	0.70401	0.444
Mof_C 	C 	0.86398	0.56318	0.71966	-0.157
Mof_C 	C 	0.88726	0.57524	0.70758	0.048
Mof_H 	H 	0.8944	0.5676	0.6901	0.026
Mof_C 	C 	0.86615	0.59654	0.75867	-0.166
Mof_H 	H 	0.8584	0.6036	0.7762	0.084
Mof_C 	C 	0.85341	0.57368	0.74581	0.088
Mof_H 	H 	0.8373	0.5648	0.7546	0.013
Mof_H 	H 	0.7376	0.5172	0.7053	-0.003
Mof_H 	H 	0.778	0.5405	0.7463	0.019
Mof_C 	C 	0.7469	0.5197	0.7234	-0.122
Mof_H 	H 	0.7383	0.5141	0.7048	0.032
Mof_H 	H 	0.7549	0.5392	0.7214	0.016
Mof_O 	O 	0.32672	0.03014	0.71527	-0.487
Mof_O 	O 	0.36032	0.03016	0.68232	-0.5
Mof_C 	C 	0.3488	0.0399	0.70401	0.445
Mof_C 	C 	0.36398	0.06318	0.71966	-0.158
Mof_C 	C 	0.38726	0.07524	0.70758	0.048
Mof_H 	H 	0.3944	0.0676	0.6901	0.025
Mof_C 	C 	0.36615	0.09654	0.75867	-0.167
Mof_H 	H 	0.3584	0.1036	0.7762	0.084
Mof_C 	C 	0.35341	0.07368	0.74581	0.088
Mof_H 	H 	0.3373	0.0648	0.7546	0.013
Mof_H 	H 	0.2376	0.0172	0.7053	-0.009
Mof_H 	H 	0.278	0.0405	0.7463	0.019
Mof_C 	C 	0.2469	0.0197	0.7234	-0.156
Mof_H 	H 	0.2383	0.0141	0.7048	0.037
Mof_H 	H 	0.2549	0.0392	0.7214	0.015
Mof_O 	O 	0.32672	0.53014	0.21527	-0.487
Mof_O 	O 	0.36032	0.53016	0.18232	-0.499
Mof_C 	C 	0.3488	0.5399	0.20401	0.445
Mof_C 	C 	0.36398	0.56318	0.21966	-0.158
Mof_C 	C 	0.38726	0.57524	0.20758	0.048
Mof_H 	H 	0.3944	0.5676	0.1901	0.025
Mof_C 	C 	0.36615	0.59654	0.25867	-0.167
Mof_H 	H 	0.3584	0.6036	0.2762	0.084
Mof_C 	C 	0.35341	0.57368	0.24581	0.088
Mof_H 	H 	0.3373	0.5648	0.2546	0.013
Mof_H 	H 	0.2376	0.5172	0.2053	-0.003
Mof_H 	H 	0.278	0.5405	0.2463	0.019
Mof_C 	C 	0.2469	0.5197	0.2234	-0.122
Mof_H 	H 	0.2383	0.5141	0.2048	0.032
Mof_H 	H 	0.2549	0.5392	0.2214	0.016
Mof_O 	O 	0.82672	0.96986	0.78473	-0.485
Mof_O 	O 	0.86032	0.96984	0.81768	-0.497
Mof_C 	C 	0.8488	0.9601	0.79599	0.444
Mof_C 	C 	0.86398	0.93682	0.78034	-0.156
Mof_C 	C 	0.88726	0.92476	0.79242	0.047
Mof_H 	H 	0.8944	0.9324	0.8099	0.026
Mof_C 	C 	0.86615	0.90346	0.74133	-0.166
Mof_H 	H 	0.8584	0.8964	0.7238	0.084
Mof_C 	C 	0.85341	0.92632	0.75419	0.087
Mof_H 	H 	0.8373	0.9352	0.7454	0.014
Mof_H 	H 	0.7376	0.9828	0.7947	-0.007
Mof_H 	H 	0.778	0.9595	0.7537	0.019
Mof_C 	C 	0.7469	0.9803	0.7766	-0.149
Mof_H 	H 	0.7383	0.9859	0.7952	0.036
Mof_H 	H 	0.7549	0.9608	0.7786	0.015
Mof_O 	O 	0.82672	0.46986	0.28473	-0.486
Mof_O 	O 	0.86032	0.46984	0.31768	-0.499
Mof_C 	C 	0.8488	0.4601	0.29599	0.444
Mof_C 	C 	0.86398	0.43682	0.28034	-0.157
Mof_C 	C 	0.88726	0.42476	0.29242	0.048
Mof_H 	H 	0.8944	0.4324	0.3099	0.026
Mof_C 	C 	0.86615	0.40346	0.24133	-0.166
Mof_H 	H 	0.8584	0.3964	0.2238	0.084
Mof_C 	C 	0.85341	0.42632	0.25419	0.088
Mof_H 	H 	0.8373	0.4352	0.2454	0.013
Mof_H 	H 	0.7376	0.4828	0.2947	-0.003
Mof_H 	H 	0.778	0.4595	0.2537	0.019
Mof_C 	C 	0.7469	0.4803	0.2766	-0.122
Mof_H 	H 	0.7383	0.4859	0.2952	0.032
Mof_H 	H 	0.7549	0.4608	0.2786	0.016
Mof_O 	O 	0.32672	0.96986	0.28473	-0.485
Mof_O 	O 	0.36032	0.96984	0.31768	-0.497
Mof_C 	C 	0.3488	0.9601	0.29599	0.444
Mof_C 	C 	0.36398	0.93682	0.28034	-0.157
Mof_C 	C 	0.38726	0.92476	0.29242	0.048
Mof_H 	H 	0.3944	0.9324	0.3099	0.026
Mof_C 	C 	0.36615	0.90346	0.24133	-0.166
Mof_H 	H 	0.3584	0.8964	0.2238	0.084
Mof_C 	C 	0.35341	0.92632	0.25419	0.088
Mof_H 	H 	0.3373	0.9352	0.2454	0.013
Mof_H 	H 	0.2376	0.9828	0.2947	-0.007
Mof_H 	H 	0.278	0.9595	0.2537	0.019
Mof_C 	C 	0.2469	0.9803	0.2766	-0.149
Mof_H 	H 	0.2383	0.9859	0.2952	0.036
Mof_H 	H 	0.2549	0.9608	0.2786	0.015
Mof_O 	O 	0.32672	0.46986	0.78473	-0.487
Mof_O 	O 	0.36032	0.46984	0.81768	-0.499
Mof_C 	C 	0.3488	0.4601	0.79599	0.444
Mof_C 	C 	0.36398	0.43682	0.78034	-0.157
Mof_C 	C 	0.38726	0.42476	0.79242	0.048
Mof_H 	H 	0.3944	0.4324	0.8099	0.026
Mof_C 	C 	0.36615	0.40346	0.74133	-0.167
Mof_H 	H 	0.3584	0.3964	0.7238	0.084
Mof_C 	C 	0.35341	0.42632	0.75419	0.088
Mof_H 	H 	0.3373	0.4352	0.7454	0.013
Mof_H 	H 	0.2376	0.4828	0.7947	-0.003
Mof_H 	H 	0.278	0.4595	0.7537	0.019
Mof_C 	C 	0.2469	0.4803	0.7766	-0.122
Mof_H 	H 	0.2383	0.4859	0.7952	0.032
Mof_H 	H 	0.2549	0.4608	0.7786	0.016
Mof_O 	O 	0.17328	0.96986	0.21527	-0.485
Mof_O 	O 	0.13968	0.96984	0.18232	-0.498
Mof_C 	C 	0.1512	0.9601	0.20401	0.444
Mof_C 	C 	0.13602	0.93682	0.21966	-0.157
Mof_C 	C 	0.11274	0.92476	0.20758	0.048
Mof_H 	H 	0.1056	0.9324	0.1901	0.026
Mof_C 	C 	0.13385	0.90346	0.25867	-0.166
Mof_H 	H 	0.1416	0.8964	0.2762	0.084
Mof_C 	C 	0.14659	0.92632	0.24581	0.088
Mof_H 	H 	0.1627	0.9352	0.2546	0.013
Mof_H 	H 	0.2624	0.9828	0.2053	-0.007
Mof_H 	H 	0.222	0.9595	0.2463	0.019
Mof_C 	C 	0.2531	0.9803	0.2234	-0.149
Mof_H 	H 	0.2617	0.9859	0.2048	0.036
Mof_H 	H 	0.2451	0.9608	0.2214	0.015
Mof_O 	O 	0.17328	0.46986	0.71527	-0.487
Mof_O 	O 	0.13968	0.46984	0.68232	-0.499
Mof_C 	C 	0.1512	0.4601	0.70401	0.445
Mof_C 	C 	0.13602	0.43682	0.71966	-0.158
Mof_C 	C 	0.11274	0.42476	0.70758	0.048
Mof_H 	H 	0.1056	0.4324	0.6901	0.025
Mof_C 	C 	0.13385	0.40346	0.75867	-0.167
Mof_H 	H 	0.1416	0.3964	0.7762	0.084
Mof_C 	C 	0.14659	0.42632	0.74581	0.088
Mof_H 	H 	0.1627	0.4352	0.7546	0.013
Mof_H 	H 	0.2624	0.4828	0.7053	-0.003
Mof_H 	H 	0.222	0.4595	0.7463	0.019
Mof_C 	C 	0.2531	0.4803	0.7234	-0.122
Mof_H 	H 	0.2617	0.4859	0.7048	0.032
Mof_H 	H 	0.2451	0.4608	0.7214	0.016
Mof_O 	O 	0.67328	0.96986	0.71527	-0.485
Mof_O 	O 	0.63968	0.96984	0.68232	-0.497
Mof_C 	C 	0.6512	0.9601	0.70401	0.444
Mof_C 	C 	0.63602	0.93682	0.71966	-0.157
Mof_C 	C 	0.61274	0.92476	0.70758	0.048
Mof_H 	H 	0.6056	0.9324	0.6901	0.026
Mof_C 	C 	0.63385	0.90346	0.75867	-0.166
Mof_H 	H 	0.6416	0.8964	0.7762	0.084
Mof_C 	C 	0.64659	0.92632	0.74581	0.088
Mof_H 	H 	0.6627	0.9352	0.7546	0.013
Mof_H 	H 	0.7624	0.9828	0.7053	-0.007
Mof_H 	H 	0.722	0.9595	0.7463	0.019
Mof_C 	C 	0.7531	0.9803	0.7234	-0.149
Mof_H 	H 	0.7617	0.9859	0.7048	0.036
Mof_H 	H 	0.7451	0.9608	0.7214	0.015
Mof_O 	O 	0.67328	0.46986	0.21527	-0.487
Mof_O 	O 	0.63968	0.46984	0.18232	-0.499
Mof_C 	C 	0.6512	0.4601	0.20401	0.445
Mof_C 	C 	0.63602	0.43682	0.21966	-0.158
Mof_C 	C 	0.61274	0.42476	0.20758	0.048
Mof_H 	H 	0.6056	0.4324	0.1901	0.025
Mof_C 	C 	0.63385	0.40346	0.25867	-0.167
Mof_H 	H 	0.6416	0.3964	0.2762	0.084
Mof_C 	C 	0.64659	0.42632	0.24581	0.088
Mof_H 	H 	0.6627	0.4352	0.2546	0.013
Mof_H 	H 	0.7624	0.4828	0.2053	-0.003
Mof_H 	H 	0.722	0.4595	0.2463	0.019
Mof_C 	C 	0.7531	0.4803	0.2234	-0.122
Mof_H 	H 	0.7617	0.4859	0.2048	0.032
Mof_H 	H 	0.7451	0.4608	0.2214	0.016
Mof_O 	O 	0.03014	0.21527	0.82672	-0.487
Mof_O 	O 	0.03016	0.18232	0.86032	-0.5
Mof_C 	C 	0.0399	0.20401	0.8488	0.445
Mof_C 	C 	0.06318	0.21966	0.86398	-0.158
Mof_C 	C 	0.07524	0.20758	0.88726	0.048
Mof_H 	H 	0.0676	0.1901	0.8944	0.025
Mof_C 	C 	0.09654	0.25867	0.86615	-0.167
Mof_H 	H 	0.1036	0.2762	0.8584	0.084
Mof_C 	C 	0.07368	0.24581	0.85341	0.088
Mof_H 	H 	0.0648	0.2546	0.8373	0.013
Mof_H 	H 	0.0172	0.2053	0.7376	-0.009
Mof_H 	H 	0.0405	0.2463	0.778	0.019
Mof_C 	C 	0.0197	0.2234	0.7469	-0.156
Mof_H 	H 	0.0141	0.2048	0.7383	0.037
Mof_H 	H 	0.0392	0.2214	0.7549	0.015
Mof_O 	O 	0.03014	0.71527	0.32672	-0.487
Mof_O 	O 	0.03016	0.68232	0.36032	-0.5
Mof_C 	C 	0.0399	0.70401	0.3488	0.445
Mof_C 	C 	0.06318	0.71966	0.36398	-0.158
Mof_C 	C 	0.07524	0.70758	0.38726	0.048
Mof_H 	H 	0.0676	0.6901	0.3944	0.025
Mof_C 	C 	0.09654	0.75867	0.36615	-0.167
Mof_H 	H 	0.1036	0.7762	0.3584	0.084
Mof_C 	C 	0.07368	0.74581	0.35341	0.088
Mof_H 	H 	0.0648	0.7546	0.3373	0.013
Mof_H 	H 	0.0172	0.7053	0.2376	-0.009
Mof_H 	H 	0.0405	0.7463	0.278	0.019
Mof_C 	C 	0.0197	0.7234	0.2469	-0.156
Mof_H 	H 	0.0141	0.7048	0.2383	0.037
Mof_H 	H 	0.0392	0.7214	0.2549	0.015
Mof_O 	O 	0.53014	0.21527	0.32672	-0.487
Mof_O 	O 	0.53016	0.18232	0.36032	-0.499
Mof_C 	C 	0.5399	0.20401	0.3488	0.445
Mof_C 	C 	0.56318	0.21966	0.36398	-0.158
Mof_C 	C 	0.57524	0.20758	0.38726	0.048
Mof_H 	H 	0.5676	0.1901	0.3944	0.025
Mof_C 	C 	0.59654	0.25867	0.36615	-0.167
Mof_H 	H 	0.6036	0.2762	0.3584	0.084
Mof_C 	C 	0.57368	0.24581	0.35341	0.088
Mof_H 	H 	0.5648	0.2546	0.3373	0.013
Mof_H 	H 	0.5172	0.2053	0.2376	-0.003
Mof_H 	H 	0.5405	0.2463	0.278	0.019
Mof_C 	C 	0.5197	0.2234	0.2469	-0.122
Mof_H 	H 	0.5141	0.2048	0.2383	0.032
Mof_H 	H 	0.5392	0.2214	0.2549	0.016
Mof_O 	O 	0.53014	0.71527	0.82672	-0.486
Mof_O 	O 	0.53016	0.68232	0.86032	-0.499
Mof_C 	C 	0.5399	0.70401	0.8488	0.444
Mof_C 	C 	0.56318	0.71966	0.86398	-0.157
Mof_C 	C 	0.57524	0.70758	0.88726	0.048
Mof_H 	H 	0.5676	0.6901	0.8944	0.026
Mof_C 	C 	0.59654	0.75867	0.86615	-0.166
Mof_H 	H 	0.6036	0.7762	0.8584	0.084
Mof_C 	C 	0.57368	0.74581	0.85341	0.088
Mof_H 	H 	0.5648	0.7546	0.8373	0.013
Mof_H 	H 	0.5172	0.7053	0.7376	-0.003
Mof_H 	H 	0.5405	0.7463	0.778	0.019
Mof_C 	C 	0.5197	0.7234	0.7469	-0.122
Mof_H 	H 	0.5141	0.7048	0.7383	0.032
Mof_H 	H 	0.5392	0.7214	0.7549	0.016
Mof_O 	O 	0.03014	0.78473	0.17328	-0.487
Mof_O 	O 	0.03016	0.81768	0.13968	-0.5
Mof_C 	C 	0.0399	0.79599	0.1512	0.445
Mof_C 	C 	0.06318	0.78034	0.13602	-0.158
Mof_C 	C 	0.07524	0.79242	0.11274	0.049
Mof_H 	H 	0.0676	0.8099	0.1056	0.025
Mof_C 	C 	0.09654	0.74133	0.13385	-0.167
Mof_H 	H 	0.1036	0.7238	0.1416	0.084
Mof_C 	C 	0.07368	0.75419	0.14659	0.088
Mof_H 	H 	0.0648	0.7454	0.1627	0.013
Mof_H 	H 	0.0172	0.7947	0.2624	-0.009
Mof_H 	H 	0.0405	0.7537	0.222	0.019
Mof_C 	C 	0.0197	0.7766	0.2531	-0.156
Mof_H 	H 	0.0141	0.7952	0.2617	0.037
Mof_H 	H 	0.0392	0.7786	0.2451	0.015
Mof_O 	O 	0.03014	0.28473	0.67328	-0.487
Mof_O 	O 	0.03016	0.31768	0.63968	-0.5
Mof_C 	C 	0.0399	0.29599	0.6512	0.445
Mof_C 	C 	0.06318	0.28034	0.63602	-0.158
Mof_C 	C 	0.07524	0.29242	0.61274	0.048
Mof_H 	H 	0.0676	0.3099	0.6056	0.025
Mof_C 	C 	0.09654	0.24133	0.63385	-0.167
Mof_H 	H 	0.1036	0.2238	0.6416	0.084
Mof_C 	C 	0.07368	0.25419	0.64659	0.088
Mof_H 	H 	0.0648	0.2454	0.6627	0.013
Mof_H 	H 	0.0172	0.2947	0.7624	-0.009
Mof_H 	H 	0.0405	0.2537	0.722	0.019
Mof_C 	C 	0.0197	0.2766	0.7531	-0.156
Mof_H 	H 	0.0141	0.2952	0.7617	0.037
Mof_H 	H 	0.0392	0.2786	0.7451	0.015
Mof_O 	O 	0.53014	0.78473	0.67328	-0.487
Mof_O 	O 	0.53016	0.81768	0.63968	-0.499
Mof_C 	C 	0.5399	0.79599	0.6512	0.444
Mof_C 	C 	0.56318	0.78034	0.63602	-0.157
Mof_C 	C 	0.57524	0.79242	0.61274	0.048
Mof_H 	H 	0.5676	0.8099	0.6056	0.026
Mof_C 	C 	0.59654	0.74133	0.63385	-0.167
Mof_H 	H 	0.6036	0.7238	0.6416	0.084
Mof_C 	C 	0.57368	0.75419	0.64659	0.088
Mof_H 	H 	0.5648	0.7454	0.6627	0.013
Mof_H 	H 	0.5172	0.7947	0.7624	-0.003
Mof_H 	H 	0.5405	0.7537	0.722	0.019
Mof_C 	C 	0.5197	0.7766	0.7531	-0.122
Mof_H 	H 	0.5141	0.7952	0.7617	0.032
Mof_H 	H 	0.5392	0.7786	0.7451	0.016
Mof_O 	O 	0.53014	0.28473	0.17328	-0.487
Mof_O 	O 	0.53016	0.31768	0.13968	-0.499
Mof_C 	C 	0.5399	0.29599	0.1512	0.445
Mof_C 	C 	0.56318	0.28034	0.13602	-0.158
Mof_C 	C 	0.57524	0.29242	0.11274	0.048
Mof_H 	H 	0.5676	0.3099	0.1056	0.025
Mof_C 	C 	0.59654	0.24133	0.13385	-0.167
Mof_H 	H 	0.6036	0.2238	0.1416	0.084
Mof_C 	C 	0.57368	0.25419	0.14659	0.088
Mof_H 	H 	0.5648	0.2454	0.1627	0.013
Mof_H 	H 	0.5172	0.2947	0.2624	-0.003
Mof_H 	H 	0.5405	0.2537	0.222	0.019
Mof_C 	C 	0.5197	0.2766	0.2531	-0.122
Mof_H 	H 	0.5141	0.2952	0.2617	0.032
Mof_H 	H 	0.5392	0.2786	0.2451	0.016
Mof_O 	O 	0.96986	0.21527	0.17328	-0.485
Mof_O 	O 	0.96984	0.18232	0.13968	-0.498
Mof_C 	C 	0.9601	0.20401	0.1512	0.444
Mof_C 	C 	0.93682	0.21966	0.13602	-0.157
Mof_C 	C 	0.92476	0.20758	0.11274	0.048
Mof_H 	H 	0.9324	0.1901	0.1056	0.026
Mof_C 	C 	0.90346	0.25867	0.13385	-0.166
Mof_H 	H 	0.8964	0.2762	0.1416	0.084
Mof_C 	C 	0.92632	0.24581	0.14659	0.088
Mof_H 	H 	0.9352	0.2546	0.1627	0.013
Mof_H 	H 	0.9828	0.2053	0.2624	-0.007
Mof_H 	H 	0.9595	0.2463	0.222	0.019
Mof_C 	C 	0.9803	0.2234	0.2531	-0.149
Mof_H 	H 	0.9859	0.2048	0.2617	0.036
Mof_H 	H 	0.9608	0.2214	0.2451	0.015
Mof_O 	O 	0.96986	0.71527	0.67328	-0.485
Mof_O 	O 	0.96984	0.68232	0.63968	-0.497
Mof_C 	C 	0.9601	0.70401	0.6512	0.444
Mof_C 	C 	0.93682	0.71966	0.63602	-0.157
Mof_C 	C 	0.92476	0.70758	0.61274	0.048
Mof_H 	H 	0.9324	0.6901	0.6056	0.026
Mof_C 	C 	0.90346	0.75867	0.63385	-0.166
Mof_H 	H 	0.8964	0.7762	0.6416	0.084
Mof_C 	C 	0.92632	0.74581	0.64659	0.088
Mof_H 	H 	0.9352	0.7546	0.6627	0.013
Mof_H 	H 	0.9828	0.7053	0.7624	-0.007
Mof_H 	H 	0.9595	0.7463	0.722	0.019
Mof_C 	C 	0.9803	0.7234	0.7531	-0.149
Mof_H 	H 	0.9859	0.7048	0.7617	0.036
Mof_H 	H 	0.9608	0.7214	0.7451	0.015
Mof_O 	O 	0.46986	0.21527	0.67328	-0.487
Mof_O 	O 	0.46984	0.18232	0.63968	-0.499
Mof_C 	C 	0.4601	0.20401	0.6512	0.445
Mof_C 	C 	0.43682	0.21966	0.63602	-0.158
Mof_C 	C 	0.42476	0.20758	0.61274	0.048
Mof_H 	H 	0.4324	0.1901	0.6056	0.025
Mof_C 	C 	0.40346	0.25867	0.63385	-0.167
Mof_H 	H 	0.3964	0.2762	0.6416	0.084
Mof_C 	C 	0.42632	0.24581	0.64659	0.088
Mof_H 	H 	0.4352	0.2546	0.6627	0.013
Mof_H 	H 	0.4828	0.2053	0.7624	-0.003
Mof_H 	H 	0.4595	0.2463	0.722	0.019
Mof_C 	C 	0.4803	0.2234	0.7531	-0.122
Mof_H 	H 	0.4859	0.2048	0.7617	0.032
Mof_H 	H 	0.4608	0.2214	0.7451	0.016
Mof_O 	O 	0.46986	0.71527	0.17328	-0.487
Mof_O 	O 	0.46984	0.68232	0.13968	-0.499
Mof_C 	C 	0.4601	0.70401	0.1512	0.445
Mof_C 	C 	0.43682	0.71966	0.13602	-0.158
Mof_C 	C 	0.42476	0.70758	0.11274	0.048
Mof_H 	H 	0.4324	0.6901	0.1056	0.025
Mof_C 	C 	0.40346	0.75867	0.13385	-0.167
Mof_H 	H 	0.3964	0.7762	0.1416	0.084
Mof_C 	C 	0.42632	0.74581	0.14659	0.088
Mof_H 	H 	0.4352	0.7546	0.1627	0.013
Mof_H 	H 	0.4828	0.7053	0.2624	-0.003
Mof_H 	H 	0.4595	0.7463	0.222	0.019
Mof_C 	C 	0.4803	0.7234	0.2531	-0.122
Mof_H 	H 	0.4859	0.7048	0.2617	0.032
Mof_H 	H 	0.4608	0.7214	0.2451	0.016
Mof_O 	O 	0.96986	0.78473	0.82672	-0.485
Mof_O 	O 	0.96984	0.81768	0.86032	-0.497
Mof_C 	C 	0.9601	0.79599	0.8488	0.444
Mof_C 	C 	0.93682	0.78034	0.86398	-0.156
Mof_C 	C 	0.92476	0.79242	0.88726	0.047
Mof_H 	H 	0.9324	0.8099	0.8944	0.026
Mof_C 	C 	0.90346	0.74133	0.86615	-0.166
Mof_H 	H 	0.8964	0.7238	0.8584	0.084
Mof_C 	C 	0.92632	0.75419	0.85341	0.087
Mof_H 	H 	0.9352	0.7454	0.8373	0.014
Mof_H 	H 	0.9828	0.7947	0.7376	-0.007
Mof_H 	H 	0.9595	0.7537	0.778	0.019
Mof_C 	C 	0.9803	0.7766	0.7469	-0.149
Mof_H 	H 	0.9859	0.7952	0.7383	0.036
Mof_H 	H 	0.9608	0.7786	0.7549	0.015
Mof_O 	O 	0.96986	0.28473	0.32672	-0.485
Mof_O 	O 	0.96984	0.31768	0.36032	-0.497
Mof_C 	C 	0.9601	0.29599	0.3488	0.444
Mof_C 	C 	0.93682	0.28034	0.36398	-0.157
Mof_C 	C 	0.92476	0.29242	0.38726	0.048
Mof_H 	H 	0.9324	0.3099	0.3944	0.026
Mof_C 	C 	0.90346	0.24133	0.36615	-0.166
Mof_H 	H 	0.8964	0.2238	0.3584	0.084
Mof_C 	C 	0.92632	0.25419	0.35341	0.088
Mof_H 	H 	0.9352	0.2454	0.3373	0.013
Mof_H 	H 	0.9828	0.2947	0.2376	-0.007
Mof_H 	H 	0.9595	0.2537	0.278	0.019
Mof_C 	C 	0.9803	0.2766	0.2469	-0.149
Mof_H 	H 	0.9859	0.2952	0.2383	0.036
Mof_H 	H 	0.9608	0.2786	0.2549	0.015
Mof_O 	O 	0.46986	0.78473	0.32672	-0.487
Mof_O 	O 	0.46984	0.81768	0.36032	-0.499
Mof_C 	C 	0.4601	0.79599	0.3488	0.444
Mof_C 	C 	0.43682	0.78034	0.36398	-0.157
Mof_C 	C 	0.42476	0.79242	0.38726	0.048
Mof_H 	H 	0.4324	0.8099	0.3944	0.026
Mof_C 	C 	0.40346	0.74133	0.36615	-0.167
Mof_H 	H 	0.3964	0.7238	0.3584	0.084
Mof_C 	C 	0.42632	0.75419	0.35341	0.088
Mof_H 	H 	0.4352	0.7454	0.3373	0.013
Mof_H 	H 	0.4828	0.7947	0.2376	-0.003
Mof_H 	H 	0.4595	0.7537	0.278	0.019
Mof_C 	C 	0.4803	0.7766	0.2469	-0.122
Mof_H 	H 	0.4859	0.7952	0.2383	0.032
Mof_H 	H 	0.4608	0.7786	0.2549	0.016
Mof_O 	O 	0.46986	0.28473	0.82672	-0.486
Mof_O 	O 	0.46984	0.31768	0.86032	-0.499
Mof_C 	C 	0.4601	0.29599	0.8488	0.444
Mof_C 	C 	0.43682	0.28034	0.86398	-0.157
Mof_C 	C 	0.42476	0.29242	0.88726	0.048
Mof_H 	H 	0.4324	0.3099	0.8944	0.026
Mof_C 	C 	0.40346	0.24133	0.86615	-0.166
Mof_H 	H 	0.3964	0.2238	0.8584	0.084
Mof_C 	C 	0.42632	0.25419	0.85341	0.088
Mof_H 	H 	0.4352	0.2454	0.8373	0.013
Mof_H 	H 	0.4828	0.2947	0.7376	-0.003
Mof_H 	H 	0.4595	0.2537	0.778	0.019
Mof_C 	C 	0.4803	0.2766	0.7469	-0.122
Mof_H 	H 	0.4859	0.2952	0.7383	0.032
Mof_H 	H 	0.4608	0.2786	0.7549	0.016
Mof_O 	O 	0.82672	0.78473	0.96986	-0.485
Mof_O 	O 	0.86032	0.81768	0.96984	-0.497
Mof_C 	C 	0.8488	0.79599	0.9601	0.444
Mof_C 	C 	0.86398	0.78034	0.93682	-0.156
Mof_C 	C 	0.88726	0.79242	0.92476	0.047
Mof_H 	H 	0.8944	0.8099	0.9324	0.026
Mof_C 	C 	0.86615	0.74133	0.90346	-0.166
Mof_H 	H 	0.8584	0.7238	0.8964	0.084
Mof_C 	C 	0.85341	0.75419	0.92632	0.087
Mof_H 	H 	0.8373	0.7454	0.9352	0.014
Mof_H 	H 	0.7376	0.7947	0.9828	-0.007
Mof_H 	H 	0.778	0.7537	0.9595	0.019
Mof_C 	C 	0.7469	0.7766	0.9803	-0.149
Mof_H 	H 	0.7383	0.7952	0.9859	0.036
Mof_H 	H 	0.7549	0.7786	0.9608	0.015
Mof_O 	O 	0.82672	0.28473	0.46986	-0.486
Mof_O 	O 	0.86032	0.31768	0.46984	-0.499
Mof_C 	C 	0.8488	0.29599	0.4601	0.444
Mof_C 	C 	0.86398	0.28034	0.43682	-0.157
Mof_C 	C 	0.88726	0.29242	0.42476	0.048
Mof_H 	H 	0.8944	0.3099	0.4324	0.026
Mof_C 	C 	0.86615	0.24133	0.40346	-0.166
Mof_H 	H 	0.8584	0.2238	0.3964	0.084
Mof_C 	C 	0.85341	0.25419	0.42632	0.088
Mof_H 	H 	0.8373	0.2454	0.4352	0.013
Mof_H 	H 	0.7376	0.2947	0.4828	-0.003
Mof_H 	H 	0.778	0.2537	0.4595	0.019
Mof_C 	C 	0.7469	0.2766	0.4803	-0.122
Mof_H 	H 	0.7383	0.2952	0.4859	0.032
Mof_H 	H 	0.7549	0.2786	0.4608	0.016
Mof_O 	O 	0.32672	0.78473	0.46986	-0.487
Mof_O 	O 	0.36032	0.81768	0.46984	-0.499
Mof_C 	C 	0.3488	0.79599	0.4601	0.444
Mof_C 	C 	0.36398	0.78034	0.43682	-0.157
Mof_C 	C 	0.38726	0.79242	0.42476	0.048
Mof_H 	H 	0.3944	0.8099	0.4324	0.026
Mof_C 	C 	0.36615	0.74133	0.40346	-0.167
Mof_H 	H 	0.3584	0.7238	0.3964	0.084
Mof_C 	C 	0.35341	0.75419	0.42632	0.088
Mof_H 	H 	0.3373	0.7454	0.4352	0.013
Mof_H 	H 	0.2376	0.7947	0.4828	-0.003
Mof_H 	H 	0.278	0.7537	0.4595	0.019
Mof_C 	C 	0.2469	0.7766	0.4803	-0.122
Mof_H 	H 	0.2383	0.7952	0.4859	0.032
Mof_H 	H 	0.2549	0.7786	0.4608	0.016
Mof_O 	O 	0.32672	0.28473	0.96986	-0.485
Mof_O 	O 	0.36032	0.31768	0.96984	-0.497
Mof_C 	C 	0.3488	0.29599	0.9601	0.444
Mof_C 	C 	0.36398	0.28034	0.93682	-0.157
Mof_C 	C 	0.38726	0.29242	0.92476	0.048
Mof_H 	H 	0.3944	0.3099	0.9324	0.026
Mof_C 	C 	0.36615	0.24133	0.90346	-0.166
Mof_H 	H 	0.3584	0.2238	0.8964	0.084
Mof_C 	C 	0.35341	0.25419	0.92632	0.088
Mof_H 	H 	0.3373	0.2454	0.9352	0.013
Mof_H 	H 	0.2376	0.2947	0.9828	-0.007
Mof_H 	H 	0.278	0.2537	0.9595	0.019
Mof_C 	C 	0.2469	0.2766	0.9803	-0.149
Mof_H 	H 	0.2383	0.2952	0.9859	0.036
Mof_H 	H 	0.2549	0.2786	0.9608	0.015
Mof_O 	O 	0.17328	0.21527	0.96986	-0.485
Mof_O 	O 	0.13968	0.18232	0.96984	-0.498
Mof_C 	C 	0.1512	0.20401	0.9601	0.444
Mof_C 	C 	0.13602	0.21966	0.93682	-0.157
Mof_C 	C 	0.11274	0.20758	0.92476	0.048
Mof_H 	H 	0.1056	0.1901	0.9324	0.026
Mof_C 	C 	0.13385	0.25867	0.90346	-0.166
Mof_H 	H 	0.1416	0.2762	0.8964	0.084
Mof_C 	C 	0.14659	0.24581	0.92632	0.088
Mof_H 	H 	0.1627	0.2546	0.9352	0.013
Mof_H 	H 	0.2624	0.2053	0.9828	-0.007
Mof_H 	H 	0.222	0.2463	0.9595	0.019
Mof_C 	C 	0.2531	0.2234	0.9803	-0.149
Mof_H 	H 	0.2617	0.2048	0.9859	0.036
Mof_H 	H 	0.2451	0.2214	0.9608	0.015
Mof_O 	O 	0.17328	0.71527	0.46986	-0.487
Mof_O 	O 	0.13968	0.68232	0.46984	-0.499
Mof_C 	C 	0.1512	0.70401	0.4601	0.445
Mof_C 	C 	0.13602	0.71966	0.43682	-0.158
Mof_C 	C 	0.11274	0.70758	0.42476	0.048
Mof_H 	H 	0.1056	0.6901	0.4324	0.025
Mof_C 	C 	0.13385	0.75867	0.40346	-0.167
Mof_H 	H 	0.1416	0.7762	0.3964	0.084
Mof_C 	C 	0.14659	0.74581	0.42632	0.088
Mof_H 	H 	0.1627	0.7546	0.4352	0.013
Mof_H 	H 	0.2624	0.7053	0.4828	-0.003
Mof_H 	H 	0.222	0.7463	0.4595	0.019
Mof_C 	C 	0.2531	0.7234	0.4803	-0.122
Mof_H 	H 	0.2617	0.7048	0.4859	0.032
Mof_H 	H 	0.2451	0.7214	0.4608	0.016
Mof_O 	O 	0.67328	0.21527	0.46986	-0.487
Mof_O 	O 	0.63968	0.18232	0.46984	-0.499
Mof_C 	C 	0.6512	0.20401	0.4601	0.445
Mof_C 	C 	0.63602	0.21966	0.43682	-0.158
Mof_C 	C 	0.61274	0.20758	0.42476	0.048
Mof_H 	H 	0.6056	0.1901	0.4324	0.025
Mof_C 	C 	0.63385	0.25867	0.40346	-0.167
Mof_H 	H 	0.6416	0.2762	0.3964	0.084
Mof_C 	C 	0.64659	0.24581	0.42632	0.088
Mof_H 	H 	0.6627	0.2546	0.4352	0.013
Mof_H 	H 	0.7624	0.2053	0.4828	-0.003
Mof_H 	H 	0.722	0.2463	0.4595	0.019
Mof_C 	C 	0.7531	0.2234	0.4803	-0.122
Mof_H 	H 	0.7617	0.2048	0.4859	0.032
Mof_H 	H 	0.7451	0.2214	0.4608	0.016
Mof_O 	O 	0.67328	0.71527	0.96986	-0.485
Mof_O 	O 	0.63968	0.68232	0.96984	-0.497
Mof_C 	C 	0.6512	0.70401	0.9601	0.444
Mof_C 	C 	0.63602	0.71966	0.93682	-0.157
Mof_C 	C 	0.61274	0.70758	0.92476	0.048
Mof_H 	H 	0.6056	0.6901	0.9324	0.026
Mof_C 	C 	0.63385	0.75867	0.90346	-0.166
Mof_H 	H 	0.6416	0.7762	0.8964	0.084
Mof_C 	C 	0.64659	0.74581	0.92632	0.088
Mof_H 	H 	0.6627	0.7546	0.9352	0.013
Mof_H 	H 	0.7624	0.7053	0.9828	-0.007
Mof_H 	H 	0.722	0.7463	0.9595	0.019
Mof_C 	C 	0.7531	0.7234	0.9803	-0.149
Mof_H 	H 	0.7617	0.7048	0.9859	0.036
Mof_H 	H 	0.7451	0.7214	0.9608	0.015
Mof_O 	O 	0.17328	0.78473	0.03014	-0.487
Mof_O 	O 	0.13968	0.81768	0.03016	-0.5
Mof_C 	C 	0.1512	0.79599	0.0399	0.445
Mof_C 	C 	0.13602	0.78034	0.06318	-0.158
Mof_C 	C 	0.11274	0.79242	0.07524	0.049
Mof_H 	H 	0.1056	0.8099	0.0676	0.025
Mof_C 	C 	0.13385	0.74133	0.09654	-0.167
Mof_H 	H 	0.1416	0.7238	0.1036	0.084
Mof_C 	C 	0.14659	0.75419	0.07368	0.088
Mof_H 	H 	0.1627	0.7454	0.0648	0.013
Mof_H 	H 	0.2624	0.7947	0.0172	-0.009
Mof_H 	H 	0.222	0.7537	0.0405	0.019
Mof_C 	C 	0.2531	0.7766	0.0197	-0.156
Mof_H 	H 	0.2617	0.7952	0.0141	0.037
Mof_H 	H 	0.2451	0.7786	0.0392	0.015
Mof_O 	O 	0.17328	0.28473	0.53014	-0.487
Mof_O 	O 	0.13968	0.31768	0.53016	-0.499
Mof_C 	C 	0.1512	0.29599	0.5399	0.445
Mof_C 	C 	0.13602	0.28034	0.56318	-0.158
Mof_C 	C 	0.11274	0.29242	0.57524	0.048
Mof_H 	H 	0.1056	0.3099	0.5676	0.025
Mof_C 	C 	0.13385	0.24133	0.59654	-0.167
Mof_H 	H 	0.1416	0.2238	0.6036	0.084
Mof_C 	C 	0.14659	0.25419	0.57368	0.088
Mof_H 	H 	0.1627	0.2454	0.5648	0.013
Mof_H 	H 	0.2624	0.2947	0.5172	-0.003
Mof_H 	H 	0.222	0.2537	0.5405	0.019
Mof_C 	C 	0.2531	0.2766	0.5197	-0.122
Mof_H 	H 	0.2617	0.2952	0.5141	0.032
Mof_H 	H 	0.2451	0.2786	0.5392	0.016
Mof_O 	O 	0.67328	0.78473	0.53014	-0.487
Mof_O 	O 	0.63968	0.81768	0.53016	-0.499
Mof_C 	C 	0.6512	0.79599	0.5399	0.444
Mof_C 	C 	0.63602	0.78034	0.56318	-0.157
Mof_C 	C 	0.61274	0.79242	0.57524	0.048
Mof_H 	H 	0.6056	0.8099	0.5676	0.026
Mof_C 	C 	0.63385	0.74133	0.59654	-0.167
Mof_H 	H 	0.6416	0.7238	0.6036	0.084
Mof_C 	C 	0.64659	0.75419	0.57368	0.088
Mof_H 	H 	0.6627	0.7454	0.5648	0.013
Mof_H 	H 	0.7624	0.7947	0.5172	-0.003
Mof_H 	H 	0.722	0.7537	0.5405	0.019
Mof_C 	C 	0.7531	0.7766	0.5197	-0.122
Mof_H 	H 	0.7617	0.7952	0.5141	0.032
Mof_H 	H 	0.7451	0.7786	0.5392	0.016
Mof_O 	O 	0.67328	0.28473	0.03014	-0.487
Mof_O 	O 	0.63968	0.31768	0.03016	-0.5
Mof_C 	C 	0.6512	0.29599	0.0399	0.445
Mof_C 	C 	0.63602	0.28034	0.06318	-0.158
Mof_C 	C 	0.61274	0.29242	0.07524	0.048
Mof_H 	H 	0.6056	0.3099	0.0676	0.025
Mof_C 	C 	0.63385	0.24133	0.09654	-0.167
Mof_H 	H 	0.6416	0.2238	0.1036	0.084
Mof_C 	C 	0.64659	0.25419	0.07368	0.088
Mof_H 	H 	0.6627	0.2454	0.0648	0.013
Mof_H 	H 	0.7624	0.2947	0.0172	-0.009
Mof_H 	H 	0.722	0.2537	0.0405	0.019
Mof_C 	C 	0.7531	0.2766	0.0197	-0.156
Mof_H 	H 	0.7617	0.2952	0.0141	0.037
Mof_H 	H 	0.7451	0.2786	0.0392	0.015
Mof_O 	O 	0.82672	0.21527	0.03014	-0.487
Mof_O 	O 	0.86032	0.18232	0.03016	-0.5
Mof_C 	C 	0.8488	0.20401	0.0399	0.445
Mof_C 	C 	0.86398	0.21966	0.06318	-0.158
Mof_C 	C 	0.88726	0.20758	0.07524	0.048
Mof_H 	H 	0.8944	0.1901	0.0676	0.025
Mof_C 	C 	0.86615	0.25867	0.09654	-0.167
Mof_H 	H 	0.8584	0.2762	0.1036	0.084
Mof_C 	C 	0.85341	0.24581	0.07368	0.088
Mof_H 	H 	0.8373	0.2546	0.0648	0.013
Mof_H 	H 	0.7376	0.2053	0.0172	-0.009
Mof_H 	H 	0.778	0.2463	0.0405	0.019
Mof_C 	C 	0.7469	0.2234	0.0197	-0.156
Mof_H 	H 	0.7383	0.2048	0.0141	0.037
Mof_H 	H 	0.7549	0.2214	0.0392	0.015
Mof_O 	O 	0.82672	0.71527	0.53014	-0.486
Mof_O 	O 	0.86032	0.68232	0.53016	-0.499
Mof_C 	C 	0.8488	0.70401	0.5399	0.444
Mof_C 	C 	0.86398	0.71966	0.56318	-0.157
Mof_C 	C 	0.88726	0.70758	0.57524	0.048
Mof_H 	H 	0.8944	0.6901	0.5676	0.026
Mof_C 	C 	0.86615	0.75867	0.59654	-0.166
Mof_H 	H 	0.8584	0.7762	0.6036	0.084
Mof_C 	C 	0.85341	0.74581	0.57368	0.088
Mof_H 	H 	0.8373	0.7546	0.5648	0.013
Mof_H 	H 	0.7376	0.7053	0.5172	-0.003
Mof_H 	H 	0.778	0.7463	0.5405	0.019
Mof_C 	C 	0.7469	0.7234	0.5197	-0.122
Mof_H 	H 	0.7383	0.7048	0.5141	0.032
Mof_H 	H 	0.7549	0.7214	0.5392	0.016
Mof_O 	O 	0.32672	0.21527	0.53014	-0.487
Mof_O 	O 	0.36032	0.18232	0.53016	-0.499
Mof_C 	C 	0.3488	0.20401	0.5399	0.445
Mof_C 	C 	0.36398	0.21966	0.56318	-0.158
Mof_C 	C 	0.38726	0.20758	0.57524	0.048
Mof_H 	H 	0.3944	0.1901	0.5676	0.025
Mof_C 	C 	0.36615	0.25867	0.59654	-0.167
Mof_H 	H 	0.3584	0.2762	0.6036	0.084
Mof_C 	C 	0.35341	0.24581	0.57368	0.088
Mof_H 	H 	0.3373	0.2546	0.5648	0.013
Mof_H 	H 	0.2376	0.2053	0.5172	-0.003
Mof_H 	H 	0.278	0.2463	0.5405	0.019
Mof_C 	C 	0.2469	0.2234	0.5197	-0.122
Mof_H 	H 	0.2383	0.2048	0.5141	0.032
Mof_H 	H 	0.2549	0.2214	0.5392	0.016
Mof_O 	O 	0.32672	0.71527	0.03014	-0.487
Mof_O 	O 	0.36032	0.68232	0.03016	-0.5
Mof_C 	C 	0.3488	0.70401	0.0399	0.445
Mof_C 	C 	0.36398	0.71966	0.06318	-0.158
Mof_C 	C 	0.38726	0.70758	0.07524	0.048
Mof_H 	H 	0.3944	0.6901	0.0676	0.025
Mof_C 	C 	0.36615	0.75867	0.09654	-0.167
Mof_H 	H 	0.3584	0.7762	0.1036	0.084
Mof_C 	C 	0.35341	0.74581	0.07368	0.088
Mof_H 	H 	0.3373	0.7546	0.0648	0.013
Mof_H 	H 	0.2376	0.7053	0.0172	-0.009
Mof_H 	H 	0.278	0.7463	0.0405	0.019
Mof_C 	C 	0.2469	0.7234	0.0197	-0.156
Mof_H 	H 	0.2383	0.7048	0.0141	0.037
Mof_H 	H 	0.2549	0.7214	0.0392	0.015
Mof_O 	O 	0.96986	0.82672	0.78473	-0.485
Mof_O 	O 	0.96984	0.86032	0.81768	-0.497
Mof_C 	C 	0.9601	0.8488	0.79599	0.444
Mof_C 	C 	0.93682	0.86398	0.78034	-0.156
Mof_C 	C 	0.92476	0.88726	0.79242	0.047
Mof_H 	H 	0.9324	0.8944	0.8099	0.026
Mof_C 	C 	0.90346	0.86615	0.74133	-0.166
Mof_H 	H 	0.8964	0.8584	0.7238	0.084
Mof_C 	C 	0.92632	0.85341	0.75419	0.087
Mof_H 	H 	0.9352	0.8373	0.7454	0.014
Mof_H 	H 	0.9828	0.7376	0.7947	-0.007
Mof_H 	H 	0.9595	0.778	0.7537	0.019
Mof_C 	C 	0.9803	0.7469	0.7766	-0.149
Mof_H 	H 	0.9859	0.7383	0.7952	0.036
Mof_H 	H 	0.9608	0.7549	0.7786	0.015
Mof_O 	O 	0.96986	0.32672	0.28473	-0.485
Mof_O 	O 	0.96984	0.36032	0.31768	-0.497
Mof_C 	C 	0.9601	0.3488	0.29599	0.444
Mof_C 	C 	0.93682	0.36398	0.28034	-0.157
Mof_C 	C 	0.92476	0.38726	0.29242	0.048
Mof_H 	H 	0.9324	0.3944	0.3099	0.026
Mof_C 	C 	0.90346	0.36615	0.24133	-0.166
Mof_H 	H 	0.8964	0.3584	0.2238	0.084
Mof_C 	C 	0.92632	0.35341	0.25419	0.088
Mof_H 	H 	0.9352	0.3373	0.2454	0.013
Mof_H 	H 	0.9828	0.2376	0.2947	-0.007
Mof_H 	H 	0.9595	0.278	0.2537	0.019
Mof_C 	C 	0.9803	0.2469	0.2766	-0.149
Mof_H 	H 	0.9859	0.2383	0.2952	0.036
Mof_H 	H 	0.9608	0.2549	0.2786	0.015
Mof_O 	O 	0.46986	0.82672	0.28473	-0.486
Mof_O 	O 	0.46984	0.86032	0.31768	-0.499
Mof_C 	C 	0.4601	0.8488	0.29599	0.444
Mof_C 	C 	0.43682	0.86398	0.28034	-0.157
Mof_C 	C 	0.42476	0.88726	0.29242	0.048
Mof_H 	H 	0.4324	0.8944	0.3099	0.026
Mof_C 	C 	0.40346	0.86615	0.24133	-0.166
Mof_H 	H 	0.3964	0.8584	0.2238	0.084
Mof_C 	C 	0.42632	0.85341	0.25419	0.088
Mof_H 	H 	0.4352	0.8373	0.2454	0.013
Mof_H 	H 	0.4828	0.7376	0.2947	-0.003
Mof_H 	H 	0.4595	0.778	0.2537	0.019
Mof_C 	C 	0.4803	0.7469	0.2766	-0.122
Mof_H 	H 	0.4859	0.7383	0.2952	0.032
Mof_H 	H 	0.4608	0.7549	0.2786	0.016
Mof_O 	O 	0.46986	0.32672	0.78473	-0.487
Mof_O 	O 	0.46984	0.36032	0.81768	-0.499
Mof_C 	C 	0.4601	0.3488	0.79599	0.444
Mof_C 	C 	0.43682	0.36398	0.78034	-0.157
Mof_C 	C 	0.42476	0.38726	0.79242	0.048
Mof_H 	H 	0.4324	0.3944	0.8099	0.026
Mof_C 	C 	0.40346	0.36615	0.74133	-0.167
Mof_H 	H 	0.3964	0.3584	0.7238	0.084
Mof_C 	C 	0.42632	0.35341	0.75419	0.088
Mof_H 	H 	0.4352	0.3373	0.7454	0.013
Mof_H 	H 	0.4828	0.2376	0.7947	-0.003
Mof_H 	H 	0.4595	0.278	0.7537	0.019
Mof_C 	C 	0.4803	0.2469	0.7766	-0.122
Mof_H 	H 	0.4859	0.2383	0.7952	0.032
Mof_H 	H 	0.4608	0.2549	0.7786	0.016
Mof_O 	O 	0.96986	0.17328	0.21527	-0.485
Mof_O 	O 	0.96984	0.13968	0.18232	-0.498
Mof_C 	C 	0.9601	0.1512	0.20401	0.444
Mof_C 	C 	0.93682	0.13602	0.21966	-0.157
Mof_C 	C 	0.92476	0.11274	0.20758	0.048
Mof_H 	H 	0.9324	0.1056	0.1901	0.026
Mof_C 	C 	0.90346	0.13385	0.25867	-0.166
Mof_H 	H 	0.8964	0.1416	0.2762	0.084
Mof_C 	C 	0.92632	0.14659	0.24581	0.088
Mof_H 	H 	0.9352	0.1627	0.2546	0.013
Mof_H 	H 	0.9828	0.2624	0.2053	-0.007
Mof_H 	H 	0.9595	0.222	0.2463	0.019
Mof_C 	C 	0.9803	0.2531	0.2234	-0.149
Mof_H 	H 	0.9859	0.2617	0.2048	0.036
Mof_H 	H 	0.9608	0.2451	0.2214	0.015
Mof_O 	O 	0.96986	0.67328	0.71527	-0.485
Mof_O 	O 	0.96984	0.63968	0.68232	-0.497
Mof_C 	C 	0.9601	0.6512	0.70401	0.444
Mof_C 	C 	0.93682	0.63602	0.71966	-0.157
Mof_C 	C 	0.92476	0.61274	0.70758	0.048
Mof_H 	H 	0.9324	0.6056	0.6901	0.026
Mof_C 	C 	0.90346	0.63385	0.75867	-0.166
Mof_H 	H 	0.8964	0.6416	0.7762	0.084
Mof_C 	C 	0.92632	0.64659	0.74581	0.088
Mof_H 	H 	0.9352	0.6627	0.7546	0.013
Mof_H 	H 	0.9828	0.7624	0.7053	-0.007
Mof_H 	H 	0.9595	0.722	0.7463	0.019
Mof_C 	C 	0.9803	0.7531	0.7234	-0.149
Mof_H 	H 	0.9859	0.7617	0.7048	0.036
Mof_H 	H 	0.9608	0.7451	0.7214	0.015
Mof_O 	O 	0.46986	0.17328	0.71527	-0.487
Mof_O 	O 	0.46984	0.13968	0.68232	-0.499
Mof_C 	C 	0.4601	0.1512	0.70401	0.445
Mof_C 	C 	0.43682	0.13602	0.71966	-0.158
Mof_C 	C 	0.42476	0.11274	0.70758	0.048
Mof_H 	H 	0.4324	0.1056	0.6901	0.025
Mof_C 	C 	0.40346	0.13385	0.75867	-0.167
Mof_H 	H 	0.3964	0.1416	0.7762	0.084
Mof_C 	C 	0.42632	0.14659	0.74581	0.088
Mof_H 	H 	0.4352	0.1627	0.7546	0.013
Mof_H 	H 	0.4828	0.2624	0.7053	-0.003
Mof_H 	H 	0.4595	0.222	0.7463	0.019
Mof_C 	C 	0.4803	0.2531	0.7234	-0.122
Mof_H 	H 	0.4859	0.2617	0.7048	0.032
Mof_H 	H 	0.4608	0.2451	0.7214	0.016
Mof_O 	O 	0.46986	0.67328	0.21527	-0.487
Mof_O 	O 	0.46984	0.63968	0.18232	-0.499
Mof_C 	C 	0.4601	0.6512	0.20401	0.445
Mof_C 	C 	0.43682	0.63602	0.21966	-0.158
Mof_C 	C 	0.42476	0.61274	0.20758	0.048
Mof_H 	H 	0.4324	0.6056	0.1901	0.025
Mof_C 	C 	0.40346	0.63385	0.25867	-0.167
Mof_H 	H 	0.3964	0.6416	0.2762	0.084
Mof_C 	C 	0.42632	0.64659	0.24581	0.088
Mof_H 	H 	0.4352	0.6627	0.2546	0.013
Mof_H 	H 	0.4828	0.7624	0.2053	-0.003
Mof_H 	H 	0.4595	0.722	0.2463	0.019
Mof_C 	C 	0.4803	0.7531	0.2234	-0.122
Mof_H 	H 	0.4859	0.7617	0.2048	0.032
Mof_H 	H 	0.4608	0.7451	0.2214	0.016
Mof_O 	O 	0.03014	0.17328	0.78473	-0.487
Mof_O 	O 	0.03016	0.13968	0.81768	-0.5
Mof_C 	C 	0.0399	0.1512	0.79599	0.445
Mof_C 	C 	0.06318	0.13602	0.78034	-0.158
Mof_C 	C 	0.07524	0.11274	0.79242	0.049
Mof_H 	H 	0.0676	0.1056	0.8099	0.025
Mof_C 	C 	0.09654	0.13385	0.74133	-0.167
Mof_H 	H 	0.1036	0.1416	0.7238	0.084
Mof_C 	C 	0.07368	0.14659	0.75419	0.088
Mof_H 	H 	0.0648	0.1627	0.7454	0.013
Mof_H 	H 	0.0172	0.2624	0.7947	-0.009
Mof_H 	H 	0.0405	0.222	0.7537	0.019
Mof_C 	C 	0.0197	0.2531	0.7766	-0.156
Mof_H 	H 	0.0141	0.2617	0.7952	0.037
Mof_H 	H 	0.0392	0.2451	0.7786	0.015
Mof_O 	O 	0.03014	0.67328	0.28473	-0.487
Mof_O 	O 	0.03016	0.63968	0.31768	-0.5
Mof_C 	C 	0.0399	0.6512	0.29599	0.445
Mof_C 	C 	0.06318	0.63602	0.28034	-0.158
Mof_C 	C 	0.07524	0.61274	0.29242	0.048
Mof_H 	H 	0.0676	0.6056	0.3099	0.025
Mof_C 	C 	0.09654	0.63385	0.24133	-0.167
Mof_H 	H 	0.1036	0.6416	0.2238	0.084
Mof_C 	C 	0.07368	0.64659	0.25419	0.088
Mof_H 	H 	0.0648	0.6627	0.2454	0.013
Mof_H 	H 	0.0172	0.7624	0.2947	-0.009
Mof_H 	H 	0.0405	0.722	0.2537	0.019
Mof_C 	C 	0.0197	0.7531	0.2766	-0.156
Mof_H 	H 	0.0141	0.7617	0.2952	0.037
Mof_H 	H 	0.0392	0.7451	0.2786	0.015
Mof_O 	O 	0.53014	0.17328	0.28473	-0.487
Mof_O 	O 	0.53016	0.13968	0.31768	-0.499
Mof_C 	C 	0.5399	0.1512	0.29599	0.445
Mof_C 	C 	0.56318	0.13602	0.28034	-0.158
Mof_C 	C 	0.57524	0.11274	0.29242	0.048
Mof_H 	H 	0.5676	0.1056	0.3099	0.025
Mof_C 	C 	0.59654	0.13385	0.24133	-0.167
Mof_H 	H 	0.6036	0.1416	0.2238	0.084
Mof_C 	C 	0.57368	0.14659	0.25419	0.088
Mof_H 	H 	0.5648	0.1627	0.2454	0.013
Mof_H 	H 	0.5172	0.2624	0.2947	-0.003
Mof_H 	H 	0.5405	0.222	0.2537	0.019
Mof_C 	C 	0.5197	0.2531	0.2766	-0.122
Mof_H 	H 	0.5141	0.2617	0.2952	0.032
Mof_H 	H 	0.5392	0.2451	0.2786	0.016
Mof_O 	O 	0.53014	0.67328	0.78473	-0.487
Mof_O 	O 	0.53016	0.63968	0.81768	-0.499
Mof_C 	C 	0.5399	0.6512	0.79599	0.444
Mof_C 	C 	0.56318	0.63602	0.78034	-0.157
Mof_C 	C 	0.57524	0.61274	0.79242	0.048
Mof_H 	H 	0.5676	0.6056	0.8099	0.026
Mof_C 	C 	0.59654	0.63385	0.74133	-0.167
Mof_H 	H 	0.6036	0.6416	0.7238	0.084
Mof_C 	C 	0.57368	0.64659	0.75419	0.088
Mof_H 	H 	0.5648	0.6627	0.7454	0.013
Mof_H 	H 	0.5172	0.7624	0.7947	-0.003
Mof_H 	H 	0.5405	0.722	0.7537	0.019
Mof_C 	C 	0.5197	0.7531	0.7766	-0.122
Mof_H 	H 	0.5141	0.7617	0.7952	0.032
Mof_H 	H 	0.5392	0.7451	0.7786	0.016
Mof_O 	O 	0.03014	0.82672	0.21527	-0.487
Mof_O 	O 	0.03016	0.86032	0.18232	-0.5
Mof_C 	C 	0.0399	0.8488	0.20401	0.445
Mof_C 	C 	0.06318	0.86398	0.21966	-0.158
Mof_C 	C 	0.07524	0.88726	0.20758	0.048
Mof_H 	H 	0.0676	0.8944	0.1901	0.025
Mof_C 	C 	0.09654	0.86615	0.25867	-0.167
Mof_H 	H 	0.1036	0.8584	0.2762	0.084
Mof_C 	C 	0.07368	0.85341	0.24581	0.088
Mof_H 	H 	0.0648	0.8373	0.2546	0.013
Mof_H 	H 	0.0172	0.7376	0.2053	-0.009
Mof_H 	H 	0.0405	0.778	0.2463	0.019
Mof_C 	C 	0.0197	0.7469	0.2234	-0.156
Mof_H 	H 	0.0141	0.7383	0.2048	0.037
Mof_H 	H 	0.0392	0.7549	0.2214	0.015
Mof_O 	O 	0.03014	0.32672	0.71527	-0.487
Mof_O 	O 	0.03016	0.36032	0.68232	-0.5
Mof_C 	C 	0.0399	0.3488	0.70401	0.445
Mof_C 	C 	0.06318	0.36398	0.71966	-0.158
Mof_C 	C 	0.07524	0.38726	0.70758	0.048
Mof_H 	H 	0.0676	0.3944	0.6901	0.025
Mof_C 	C 	0.09654	0.36615	0.75867	-0.167
Mof_H 	H 	0.1036	0.3584	0.7762	0.084
Mof_C 	C 	0.07368	0.35341	0.74581	0.088
Mof_H 	H 	0.0648	0.3373	0.7546	0.013
Mof_H 	H 	0.0172	0.2376	0.7053	-0.009
Mof_H 	H 	0.0405	0.278	0.7463	0.019
Mof_C 	C 	0.0197	0.2469	0.7234	-0.156
Mof_H 	H 	0.0141	0.2383	0.7048	0.037
Mof_H 	H 	0.0392	0.2549	0.7214	0.015
Mof_O 	O 	0.53014	0.82672	0.71527	-0.486
Mof_O 	O 	0.53016	0.86032	0.68232	-0.499
Mof_C 	C 	0.5399	0.8488	0.70401	0.444
Mof_C 	C 	0.56318	0.86398	0.71966	-0.157
Mof_C 	C 	0.57524	0.88726	0.70758	0.048
Mof_H 	H 	0.5676	0.8944	0.6901	0.026
Mof_C 	C 	0.59654	0.86615	0.75867	-0.166
Mof_H 	H 	0.6036	0.8584	0.7762	0.084
Mof_C 	C 	0.57368	0.85341	0.74581	0.088
Mof_H 	H 	0.5648	0.8373	0.7546	0.013
Mof_H 	H 	0.5172	0.7376	0.7053	-0.003
Mof_H 	H 	0.5405	0.778	0.7463	0.019
Mof_C 	C 	0.5197	0.7469	0.7234	-0.122
Mof_H 	H 	0.5141	0.7383	0.7048	0.032
Mof_H 	H 	0.5392	0.7549	0.7214	0.016
Mof_O 	O 	0.53014	0.32672	0.21527	-0.487
Mof_O 	O 	0.53016	0.36032	0.18232	-0.499
Mof_C 	C 	0.5399	0.3488	0.20401	0.445
Mof_C 	C 	0.56318	0.36398	0.21966	-0.158
Mof_C 	C 	0.57524	0.38726	0.20758	0.048
Mof_H 	H 	0.5676	0.3944	0.1901	0.025
Mof_C 	C 	0.59654	0.36615	0.25867	-0.167
Mof_H 	H 	0.6036	0.3584	0.2762	0.084
Mof_C 	C 	0.57368	0.35341	0.24581	0.088
Mof_H 	H 	0.5648	0.3373	0.2546	0.013
Mof_H 	H 	0.5172	0.2376	0.2053	-0.003
Mof_H 	H 	0.5405	0.278	0.2463	0.019
Mof_C 	C 	0.5197	0.2469	0.2234	-0.122
Mof_H 	H 	0.5141	0.2383	0.2048	0.032
Mof_H 	H 	0.5392	0.2549	0.2214	0.016
Mof_O 	O 	0.78473	0.96986	0.82672	-0.485
Mof_O 	O 	0.81768	0.96984	0.86032	-0.497
Mof_C 	C 	0.79599	0.9601	0.8488	0.444
Mof_C 	C 	0.78034	0.93682	0.86398	-0.156
Mof_C 	C 	0.79242	0.92476	0.88726	0.047
Mof_H 	H 	0.8099	0.9324	0.8944	0.026
Mof_C 	C 	0.74133	0.90346	0.86615	-0.166
Mof_H 	H 	0.7238	0.8964	0.8584	0.084
Mof_C 	C 	0.75419	0.92632	0.85341	0.087
Mof_H 	H 	0.7454	0.9352	0.8373	0.014
Mof_H 	H 	0.7947	0.9828	0.7376	-0.007
Mof_H 	H 	0.7537	0.9595	0.778	0.019
Mof_C 	C 	0.7766	0.9803	0.7469	-0.149
Mof_H 	H 	0.7952	0.9859	0.7383	0.036
Mof_H 	H 	0.7786	0.9608	0.7549	0.015
Mof_O 	O 	0.78473	0.46986	0.32672	-0.487
Mof_O 	O 	0.81768	0.46984	0.36032	-0.499
Mof_C 	C 	0.79599	0.4601	0.3488	0.444
Mof_C 	C 	0.78034	0.43682	0.36398	-0.157
Mof_C 	C 	0.79242	0.42476	0.38726	0.048
Mof_H 	H 	0.8099	0.4324	0.3944	0.026
Mof_C 	C 	0.74133	0.40346	0.36615	-0.167
Mof_H 	H 	0.7238	0.3964	0.3584	0.084
Mof_C 	C 	0.75419	0.42632	0.35341	0.088
Mof_H 	H 	0.7454	0.4352	0.3373	0.013
Mof_H 	H 	0.7947	0.4828	0.2376	-0.003
Mof_H 	H 	0.7537	0.4595	0.278	0.019
Mof_C 	C 	0.7766	0.4803	0.2469	-0.122
Mof_H 	H 	0.7952	0.4859	0.2383	0.032
Mof_H 	H 	0.7786	0.4608	0.2549	0.016
Mof_O 	O 	0.28473	0.96986	0.32672	-0.485
Mof_O 	O 	0.31768	0.96984	0.36032	-0.497
Mof_C 	C 	0.29599	0.9601	0.3488	0.444
Mof_C 	C 	0.28034	0.93682	0.36398	-0.157
Mof_C 	C 	0.29242	0.92476	0.38726	0.048
Mof_H 	H 	0.3099	0.9324	0.3944	0.026
Mof_C 	C 	0.24133	0.90346	0.36615	-0.166
Mof_H 	H 	0.2238	0.8964	0.3584	0.084
Mof_C 	C 	0.25419	0.92632	0.35341	0.088
Mof_H 	H 	0.2454	0.9352	0.3373	0.013
Mof_H 	H 	0.2947	0.9828	0.2376	-0.007
Mof_H 	H 	0.2537	0.9595	0.278	0.019
Mof_C 	C 	0.2766	0.9803	0.2469	-0.149
Mof_H 	H 	0.2952	0.9859	0.2383	0.036
Mof_H 	H 	0.2786	0.9608	0.2549	0.015
Mof_O 	O 	0.28473	0.46986	0.82672	-0.486
Mof_O 	O 	0.31768	0.46984	0.86032	-0.499
Mof_C 	C 	0.29599	0.4601	0.8488	0.444
Mof_C 	C 	0.28034	0.43682	0.86398	-0.157
Mof_C 	C 	0.29242	0.42476	0.88726	0.048
Mof_H 	H 	0.3099	0.4324	0.8944	0.026
Mof_C 	C 	0.24133	0.40346	0.86615	-0.166
Mof_H 	H 	0.2238	0.3964	0.8584	0.084
Mof_C 	C 	0.25419	0.42632	0.85341	0.088
Mof_H 	H 	0.2454	0.4352	0.8373	0.013
Mof_H 	H 	0.2947	0.4828	0.7376	-0.003
Mof_H 	H 	0.2537	0.4595	0.778	0.019
Mof_C 	C 	0.2766	0.4803	0.7469	-0.122
Mof_H 	H 	0.2952	0.4859	0.7383	0.032
Mof_H 	H 	0.2786	0.4608	0.7549	0.016
Mof_O 	O 	0.21527	0.96986	0.17328	-0.485
Mof_O 	O 	0.18232	0.96984	0.13968	-0.498
Mof_C 	C 	0.20401	0.9601	0.1512	0.444
Mof_C 	C 	0.21966	0.93682	0.13602	-0.157
Mof_C 	C 	0.20758	0.92476	0.11274	0.048
Mof_H 	H 	0.1901	0.9324	0.1056	0.026
Mof_C 	C 	0.25867	0.90346	0.13385	-0.166
Mof_H 	H 	0.2762	0.8964	0.1416	0.084
Mof_C 	C 	0.24581	0.92632	0.14659	0.088
Mof_H 	H 	0.2546	0.9352	0.1627	0.013
Mof_H 	H 	0.2053	0.9828	0.2624	-0.007
Mof_H 	H 	0.2463	0.9595	0.222	0.019
Mof_C 	C 	0.2234	0.9803	0.2531	-0.149
Mof_H 	H 	0.2048	0.9859	0.2617	0.036
Mof_H 	H 	0.2214	0.9608	0.2451	0.015
Mof_O 	O 	0.21527	0.46986	0.67328	-0.487
Mof_O 	O 	0.18232	0.46984	0.63968	-0.499
Mof_C 	C 	0.20401	0.4601	0.6512	0.445
Mof_C 	C 	0.21966	0.43682	0.63602	-0.158
Mof_C 	C 	0.20758	0.42476	0.61274	0.048
Mof_H 	H 	0.1901	0.4324	0.6056	0.025
Mof_C 	C 	0.25867	0.40346	0.63385	-0.167
Mof_H 	H 	0.2762	0.3964	0.6416	0.084
Mof_C 	C 	0.24581	0.42632	0.64659	0.088
Mof_H 	H 	0.2546	0.4352	0.6627	0.013
Mof_H 	H 	0.2053	0.4828	0.7624	-0.003
Mof_H 	H 	0.2463	0.4595	0.722	0.019
Mof_C 	C 	0.2234	0.4803	0.7531	-0.122
Mof_H 	H 	0.2048	0.4859	0.7617	0.032
Mof_H 	H 	0.2214	0.4608	0.7451	0.016
Mof_O 	O 	0.71527	0.96986	0.67328	-0.485
Mof_O 	O 	0.68232	0.96984	0.63968	-0.497
Mof_C 	C 	0.70401	0.9601	0.6512	0.444
Mof_C 	C 	0.71966	0.93682	0.63602	-0.157
Mof_C 	C 	0.70758	0.92476	0.61274	0.048
Mof_H 	H 	0.6901	0.9324	0.6056	0.026
Mof_C 	C 	0.75867	0.90346	0.63385	-0.166
Mof_H 	H 	0.7762	0.8964	0.6416	0.084
Mof_C 	C 	0.74581	0.92632	0.64659	0.088
Mof_H 	H 	0.7546	0.9352	0.6627	0.013
Mof_H 	H 	0.7053	0.9828	0.7624	-0.007
Mof_H 	H 	0.7463	0.9595	0.722	0.019
Mof_C 	C 	0.7234	0.9803	0.7531	-0.149
Mof_H 	H 	0.7048	0.9859	0.7617	0.036
Mof_H 	H 	0.7214	0.9608	0.7451	0.015
Mof_O 	O 	0.71527	0.46986	0.17328	-0.487
Mof_O 	O 	0.68232	0.46984	0.13968	-0.499
Mof_C 	C 	0.70401	0.4601	0.1512	0.445
Mof_C 	C 	0.71966	0.43682	0.13602	-0.158
Mof_C 	C 	0.70758	0.42476	0.11274	0.048
Mof_H 	H 	0.6901	0.4324	0.1056	0.025
Mof_C 	C 	0.75867	0.40346	0.13385	-0.167
Mof_H 	H 	0.7762	0.3964	0.1416	0.084
Mof_C 	C 	0.74581	0.42632	0.14659	0.088
Mof_H 	H 	0.7546	0.4352	0.1627	0.013
Mof_H 	H 	0.7053	0.4828	0.2624	-0.003
Mof_H 	H 	0.7463	0.4595	0.222	0.019
Mof_C 	C 	0.7234	0.4803	0.2531	-0.122
Mof_H 	H 	0.7048	0.4859	0.2617	0.032
Mof_H 	H 	0.7214	0.4608	0.2451	0.016
Mof_O 	O 	0.78473	0.03014	0.17328	-0.487
Mof_O 	O 	0.81768	0.03016	0.13968	-0.5
Mof_C 	C 	0.79599	0.0399	0.1512	0.445
Mof_C 	C 	0.78034	0.06318	0.13602	-0.158
Mof_C 	C 	0.79242	0.07524	0.11274	0.049
Mof_H 	H 	0.8099	0.0676	0.1056	0.025
Mof_C 	C 	0.74133	0.09654	0.13385	-0.167
Mof_H 	H 	0.7238	0.1036	0.1416	0.084
Mof_C 	C 	0.75419	0.07368	0.14659	0.088
Mof_H 	H 	0.7454	0.0648	0.1627	0.013
Mof_H 	H 	0.7947	0.0172	0.2624	-0.009
Mof_H 	H 	0.7537	0.0405	0.222	0.019
Mof_C 	C 	0.7766	0.0197	0.2531	-0.156
Mof_H 	H 	0.7952	0.0141	0.2617	0.037
Mof_H 	H 	0.7786	0.0392	0.2451	0.015
Mof_O 	O 	0.78473	0.53014	0.67328	-0.487
Mof_O 	O 	0.81768	0.53016	0.63968	-0.499
Mof_C 	C 	0.79599	0.5399	0.6512	0.444
Mof_C 	C 	0.78034	0.56318	0.63602	-0.157
Mof_C 	C 	0.79242	0.57524	0.61274	0.048
Mof_H 	H 	0.8099	0.5676	0.6056	0.026
Mof_C 	C 	0.74133	0.59654	0.63385	-0.167
Mof_H 	H 	0.7238	0.6036	0.6416	0.084
Mof_C 	C 	0.75419	0.57368	0.64659	0.088
Mof_H 	H 	0.7454	0.5648	0.6627	0.013
Mof_H 	H 	0.7947	0.5172	0.7624	-0.003
Mof_H 	H 	0.7537	0.5405	0.722	0.019
Mof_C 	C 	0.7766	0.5197	0.7531	-0.122
Mof_H 	H 	0.7952	0.5141	0.7617	0.032
Mof_H 	H 	0.7786	0.5392	0.7451	0.016
Mof_O 	O 	0.28473	0.03014	0.67328	-0.487
Mof_O 	O 	0.31768	0.03016	0.63968	-0.5
Mof_C 	C 	0.29599	0.0399	0.6512	0.445
Mof_C 	C 	0.28034	0.06318	0.63602	-0.158
Mof_C 	C 	0.29242	0.07524	0.61274	0.048
Mof_H 	H 	0.3099	0.0676	0.6056	0.025
Mof_C 	C 	0.24133	0.09654	0.63385	-0.167
Mof_H 	H 	0.2238	0.1036	0.6416	0.084
Mof_C 	C 	0.25419	0.07368	0.64659	0.088
Mof_H 	H 	0.2454	0.0648	0.6627	0.013
Mof_H 	H 	0.2947	0.0172	0.7624	-0.009
Mof_H 	H 	0.2537	0.0405	0.722	0.019
Mof_C 	C 	0.2766	0.0197	0.7531	-0.156
Mof_H 	H 	0.2952	0.0141	0.7617	0.037
Mof_H 	H 	0.2786	0.0392	0.7451	0.015
Mof_O 	O 	0.28473	0.53014	0.17328	-0.487
Mof_O 	O 	0.31768	0.53016	0.13968	-0.499
Mof_C 	C 	0.29599	0.5399	0.1512	0.445
Mof_C 	C 	0.28034	0.56318	0.13602	-0.158
Mof_C 	C 	0.29242	0.57524	0.11274	0.048
Mof_H 	H 	0.3099	0.5676	0.1056	0.025
Mof_C 	C 	0.24133	0.59654	0.13385	-0.167
Mof_H 	H 	0.2238	0.6036	0.1416	0.084
Mof_C 	C 	0.25419	0.57368	0.14659	0.088
Mof_H 	H 	0.2454	0.5648	0.1627	0.013
Mof_H 	H 	0.2947	0.5172	0.2624	-0.003
Mof_H 	H 	0.2537	0.5405	0.222	0.019
Mof_C 	C 	0.2766	0.5197	0.2531	-0.122
Mof_H 	H 	0.2952	0.5141	0.2617	0.032
Mof_H 	H 	0.2786	0.5392	0.2451	0.016
Mof_O 	O 	0.21527	0.03014	0.82672	-0.487
Mof_O 	O 	0.18232	0.03016	0.86032	-0.5
Mof_C 	C 	0.20401	0.0399	0.8488	0.445
Mof_C 	C 	0.21966	0.06318	0.86398	-0.158
Mof_C 	C 	0.20758	0.07524	0.88726	0.048
Mof_H 	H 	0.1901	0.0676	0.8944	0.025
Mof_C 	C 	0.25867	0.09654	0.86615	-0.167
Mof_H 	H 	0.2762	0.1036	0.8584	0.084
Mof_C 	C 	0.24581	0.07368	0.85341	0.088
Mof_H 	H 	0.2546	0.0648	0.8373	0.013
Mof_H 	H 	0.2053	0.0172	0.7376	-0.009
Mof_H 	H 	0.2463	0.0405	0.778	0.019
Mof_C 	C 	0.2234	0.0197	0.7469	-0.156
Mof_H 	H 	0.2048	0.0141	0.7383	0.037
Mof_H 	H 	0.2214	0.0392	0.7549	0.015
Mof_O 	O 	0.21527	0.53014	0.32672	-0.487
Mof_O 	O 	0.18232	0.53016	0.36032	-0.499
Mof_C 	C 	0.20401	0.5399	0.3488	0.445
Mof_C 	C 	0.21966	0.56318	0.36398	-0.158
Mof_C 	C 	0.20758	0.57524	0.38726	0.048
Mof_H 	H 	0.1901	0.5676	0.3944	0.025
Mof_C 	C 	0.25867	0.59654	0.36615	-0.167
Mof_H 	H 	0.2762	0.6036	0.3584	0.084
Mof_C 	C 	0.24581	0.57368	0.35341	0.088
Mof_H 	H 	0.2546	0.5648	0.3373	0.013
Mof_H 	H 	0.2053	0.5172	0.2376	-0.003
Mof_H 	H 	0.2463	0.5405	0.278	0.019
Mof_C 	C 	0.2234	0.5197	0.2469	-0.122
Mof_H 	H 	0.2048	0.5141	0.2383	0.032
Mof_H 	H 	0.2214	0.5392	0.2549	0.016
Mof_O 	O 	0.71527	0.03014	0.32672	-0.487
Mof_O 	O 	0.68232	0.03016	0.36032	-0.5
Mof_C 	C 	0.70401	0.0399	0.3488	0.445
Mof_C 	C 	0.71966	0.06318	0.36398	-0.158
Mof_C 	C 	0.70758	0.07524	0.38726	0.048
Mof_H 	H 	0.6901	0.0676	0.3944	0.025
Mof_C 	C 	0.75867	0.09654	0.36615	-0.167
Mof_H 	H 	0.7762	0.1036	0.3584	0.084
Mof_C 	C 	0.74581	0.07368	0.35341	0.088
Mof_H 	H 	0.7546	0.0648	0.3373	0.013
Mof_H 	H 	0.7053	0.0172	0.2376	-0.009
Mof_H 	H 	0.7463	0.0405	0.278	0.019
Mof_C 	C 	0.7234	0.0197	0.2469	-0.156
Mof_H 	H 	0.7048	0.0141	0.2383	0.037
Mof_H 	H 	0.7214	0.0392	0.2549	0.015
Mof_O 	O 	0.71527	0.53014	0.82672	-0.486
Mof_O 	O 	0.68232	0.53016	0.86032	-0.499
Mof_C 	C 	0.70401	0.5399	0.8488	0.444
Mof_C 	C 	0.71966	0.56318	0.86398	-0.157
Mof_C 	C 	0.70758	0.57524	0.88726	0.048
Mof_H 	H 	0.6901	0.5676	0.8944	0.026
Mof_C 	C 	0.75867	0.59654	0.86615	-0.166
Mof_H 	H 	0.7762	0.6036	0.8584	0.084
Mof_C 	C 	0.74581	0.57368	0.85341	0.088
Mof_H 	H 	0.7546	0.5648	0.8373	0.013
Mof_H 	H 	0.7053	0.5172	0.7376	-0.003
Mof_H 	H 	0.7463	0.5405	0.778	0.019
Mof_C 	C 	0.7234	0.5197	0.7469	-0.122
Mof_H 	H 	0.7048	0.5141	0.7383	0.032
Mof_H 	H 	0.7214	0.5392	0.7549	0.016
Mof_O 	O 	0.78473	0.82672	0.03014	-0.487
Mof_O 	O 	0.81768	0.86032	0.03016	-0.5
Mof_C 	C 	0.79599	0.8488	0.0399	0.444
Mof_C 	C 	0.78034	0.86398	0.06318	-0.158
Mof_C 	C 	0.79242	0.88726	0.07524	0.048
Mof_H 	H 	0.8099	0.8944	0.0676	0.026
Mof_C 	C 	0.74133	0.86615	0.09654	-0.167
Mof_H 	H 	0.7238	0.8584	0.1036	0.084
Mof_C 	C 	0.75419	0.85341	0.07368	0.088
Mof_H 	H 	0.7454	0.8373	0.0648	0.013
Mof_H 	H 	0.7947	0.7376	0.0172	-0.009
Mof_H 	H 	0.7537	0.778	0.0405	0.019
Mof_C 	C 	0.7766	0.7469	0.0197	-0.156
Mof_H 	H 	0.7952	0.7383	0.0141	0.037
Mof_H 	H 	0.7786	0.7549	0.0392	0.015
Mof_O 	O 	0.78473	0.32672	0.53014	-0.487
Mof_O 	O 	0.81768	0.36032	0.53016	-0.499
Mof_C 	C 	0.79599	0.3488	0.5399	0.444
Mof_C 	C 	0.78034	0.36398	0.56318	-0.157
Mof_C 	C 	0.79242	0.38726	0.57524	0.048
Mof_H 	H 	0.8099	0.3944	0.5676	0.026
Mof_C 	C 	0.74133	0.36615	0.59654	-0.167
Mof_H 	H 	0.7238	0.3584	0.6036	0.084
Mof_C 	C 	0.75419	0.35341	0.57368	0.088
Mof_H 	H 	0.7454	0.3373	0.5648	0.013
Mof_H 	H 	0.7947	0.2376	0.5172	-0.003
Mof_H 	H 	0.7537	0.278	0.5405	0.019
Mof_C 	C 	0.7766	0.2469	0.5197	-0.122
Mof_H 	H 	0.7952	0.2383	0.5141	0.032
Mof_H 	H 	0.7786	0.2549	0.5392	0.016
Mof_O 	O 	0.28473	0.82672	0.53014	-0.486
Mof_O 	O 	0.31768	0.86032	0.53016	-0.499
Mof_C 	C 	0.29599	0.8488	0.5399	0.444
Mof_C 	C 	0.28034	0.86398	0.56318	-0.157
Mof_C 	C 	0.29242	0.88726	0.57524	0.048
Mof_H 	H 	0.3099	0.8944	0.5676	0.026
Mof_C 	C 	0.24133	0.86615	0.59654	-0.166
Mof_H 	H 	0.2238	0.8584	0.6036	0.084
Mof_C 	C 	0.25419	0.85341	0.57368	0.088
Mof_H 	H 	0.2454	0.8373	0.5648	0.013
Mof_H 	H 	0.2947	0.7376	0.5172	-0.003
Mof_H 	H 	0.2537	0.778	0.5405	0.019
Mof_C 	C 	0.2766	0.7469	0.5197	-0.122
Mof_H 	H 	0.2952	0.7383	0.5141	0.032
Mof_H 	H 	0.2786	0.7549	0.5392	0.016
Mof_O 	O 	0.28473	0.32672	0.03014	-0.487
Mof_O 	O 	0.31768	0.36032	0.03016	-0.5
Mof_C 	C 	0.29599	0.3488	0.0399	0.445
Mof_C 	C 	0.28034	0.36398	0.06318	-0.158
Mof_C 	C 	0.29242	0.38726	0.07524	0.048
Mof_H 	H 	0.3099	0.3944	0.0676	0.025
Mof_C 	C 	0.24133	0.36615	0.09654	-0.167
Mof_H 	H 	0.2238	0.3584	0.1036	0.084
Mof_C 	C 	0.25419	0.35341	0.07368	0.088
Mof_H 	H 	0.2454	0.3373	0.0648	0.013
Mof_H 	H 	0.2947	0.2376	0.0172	-0.009
Mof_H 	H 	0.2537	0.278	0.0405	0.019
Mof_C 	C 	0.2766	0.2469	0.0197	-0.156
Mof_H 	H 	0.2952	0.2383	0.0141	0.037
Mof_H 	H 	0.2786	0.2549	0.0392	0.015
Mof_O 	O 	0.21527	0.17328	0.03014	-0.487
Mof_O 	O 	0.18232	0.13968	0.03016	-0.5
Mof_C 	C 	0.20401	0.1512	0.0399	0.445
Mof_C 	C 	0.21966	0.13602	0.06318	-0.158
Mof_C 	C 	0.20758	0.11274	0.07524	0.049
Mof_H 	H 	0.1901	0.1056	0.0676	0.025
Mof_C 	C 	0.25867	0.13385	0.09654	-0.167
Mof_H 	H 	0.2762	0.1416	0.1036	0.084
Mof_C 	C 	0.24581	0.14659	0.07368	0.088
Mof_H 	H 	0.2546	0.1627	0.0648	0.013
Mof_H 	H 	0.2053	0.2624	0.0172	-0.009
Mof_H 	H 	0.2463	0.222	0.0405	0.019
Mof_C 	C 	0.2234	0.2531	0.0197	-0.156
Mof_H 	H 	0.2048	0.2617	0.0141	0.037
Mof_H 	H 	0.2214	0.2451	0.0392	0.015
Mof_O 	O 	0.21527	0.67328	0.53014	-0.487
Mof_O 	O 	0.18232	0.63968	0.53016	-0.499
Mof_C 	C 	0.20401	0.6512	0.5399	0.445
Mof_C 	C 	0.21966	0.63602	0.56318	-0.158
Mof_C 	C 	0.20758	0.61274	0.57524	0.048
Mof_H 	H 	0.1901	0.6056	0.5676	0.025
Mof_C 	C 	0.25867	0.63385	0.59654	-0.167
Mof_H 	H 	0.2762	0.6416	0.6036	0.084
Mof_C 	C 	0.24581	0.64659	0.57368	0.088
Mof_H 	H 	0.2546	0.6627	0.5648	0.013
Mof_H 	H 	0.2053	0.7624	0.5172	-0.003
Mof_H 	H 	0.2463	0.722	0.5405	0.019
Mof_C 	C 	0.2234	0.7531	0.5197	-0.122
Mof_H 	H 	0.2048	0.7617	0.5141	0.032
Mof_H 	H 	0.2214	0.7451	0.5392	0.016
Mof_O 	O 	0.71527	0.17328	0.53014	-0.487
Mof_O 	O 	0.68232	0.13968	0.53016	-0.499
Mof_C 	C 	0.70401	0.1512	0.5399	0.445
Mof_C 	C 	0.71966	0.13602	0.56318	-0.158
Mof_C 	C 	0.70758	0.11274	0.57524	0.048
Mof_H 	H 	0.6901	0.1056	0.5676	0.025
Mof_C 	C 	0.75867	0.13385	0.59654	-0.167
Mof_H 	H 	0.7762	0.1416	0.6036	0.084
Mof_C 	C 	0.74581	0.14659	0.57368	0.088
Mof_H 	H 	0.7546	0.1627	0.5648	0.013
Mof_H 	H 	0.7053	0.2624	0.5172	-0.003
Mof_H 	H 	0.7463	0.222	0.5405	0.019
Mof_C 	C 	0.7234	0.2531	0.5197	-0.122
Mof_H 	H 	0.7048	0.2617	0.5141	0.032
Mof_H 	H 	0.7214	0.2451	0.5392	0.016
Mof_O 	O 	0.71527	0.67328	0.03014	-0.487
Mof_O 	O 	0.68232	0.63968	0.03016	-0.5
Mof_C 	C 	0.70401	0.6512	0.0399	0.445
Mof_C 	C 	0.71966	0.63602	0.06318	-0.158
Mof_C 	C 	0.70758	0.61274	0.07524	0.048
Mof_H 	H 	0.6901	0.6056	0.0676	0.025
Mof_C 	C 	0.75867	0.63385	0.09654	-0.167
Mof_H 	H 	0.7762	0.6416	0.1036	0.084
Mof_C 	C 	0.74581	0.64659	0.07368	0.088
Mof_H 	H 	0.7546	0.6627	0.0648	0.013
Mof_H 	H 	0.7053	0.7624	0.0172	-0.009
Mof_H 	H 	0.7463	0.722	0.0405	0.019
Mof_C 	C 	0.7234	0.7531	0.0197	-0.156
Mof_H 	H 	0.7048	0.7617	0.0141	0.037
Mof_H 	H 	0.7214	0.7451	0.0392	0.015
Mof_O 	O 	0.78473	0.17328	0.96986	-0.485
Mof_O 	O 	0.81768	0.13968	0.96984	-0.497
Mof_C 	C 	0.79599	0.1512	0.9601	0.444
Mof_C 	C 	0.78034	0.13602	0.93682	-0.157
Mof_C 	C 	0.79242	0.11274	0.92476	0.048
Mof_H 	H 	0.8099	0.1056	0.9324	0.026
Mof_C 	C 	0.74133	0.13385	0.90346	-0.166
Mof_H 	H 	0.7238	0.1416	0.8964	0.084
Mof_C 	C 	0.75419	0.14659	0.92632	0.088
Mof_H 	H 	0.7454	0.1627	0.9352	0.013
Mof_H 	H 	0.7947	0.2624	0.9828	-0.007
Mof_H 	H 	0.7537	0.222	0.9595	0.019
Mof_C 	C 	0.7766	0.2531	0.9803	-0.149
Mof_H 	H 	0.7952	0.2617	0.9859	0.036
Mof_H 	H 	0.7786	0.2451	0.9608	0.015
Mof_O 	O 	0.78473	0.67328	0.46986	-0.487
Mof_O 	O 	0.81768	0.63968	0.46984	-0.499
Mof_C 	C 	0.79599	0.6512	0.4601	0.444
Mof_C 	C 	0.78034	0.63602	0.43682	-0.157
Mof_C 	C 	0.79242	0.61274	0.42476	0.048
Mof_H 	H 	0.8099	0.6056	0.4324	0.026
Mof_C 	C 	0.74133	0.63385	0.40346	-0.167
Mof_H 	H 	0.7238	0.6416	0.3964	0.084
Mof_C 	C 	0.75419	0.64659	0.42632	0.088
Mof_H 	H 	0.7454	0.6627	0.4352	0.013
Mof_H 	H 	0.7947	0.7624	0.4828	-0.003
Mof_H 	H 	0.7537	0.722	0.4595	0.019
Mof_C 	C 	0.7766	0.7531	0.4803	-0.122
Mof_H 	H 	0.7952	0.7617	0.4859	0.032
Mof_H 	H 	0.7786	0.7451	0.4608	0.016
Mof_O 	O 	0.28473	0.17328	0.46986	-0.487
Mof_O 	O 	0.31768	0.13968	0.46984	-0.499
Mof_C 	C 	0.29599	0.1512	0.4601	0.445
Mof_C 	C 	0.28034	0.13602	0.43682	-0.158
Mof_C 	C 	0.29242	0.11274	0.42476	0.048
Mof_H 	H 	0.3099	0.1056	0.4324	0.025
Mof_C 	C 	0.24133	0.13385	0.40346	-0.167
Mof_H 	H 	0.2238	0.1416	0.3964	0.084
Mof_C 	C 	0.25419	0.14659	0.42632	0.088
Mof_H 	H 	0.2454	0.1627	0.4352	0.013
Mof_H 	H 	0.2947	0.2624	0.4828	-0.003
Mof_H 	H 	0.2537	0.222	0.4595	0.019
Mof_C 	C 	0.2766	0.2531	0.4803	-0.122
Mof_H 	H 	0.2952	0.2617	0.4859	0.032
Mof_H 	H 	0.2786	0.2451	0.4608	0.016
Mof_O 	O 	0.28473	0.67328	0.96986	-0.485
Mof_O 	O 	0.31768	0.63968	0.96984	-0.497
Mof_C 	C 	0.29599	0.6512	0.9601	0.444
Mof_C 	C 	0.28034	0.63602	0.93682	-0.157
Mof_C 	C 	0.29242	0.61274	0.92476	0.048
Mof_H 	H 	0.3099	0.6056	0.9324	0.026
Mof_C 	C 	0.24133	0.63385	0.90346	-0.166
Mof_H 	H 	0.2238	0.6416	0.8964	0.084
Mof_C 	C 	0.25419	0.64659	0.92632	0.088
Mof_H 	H 	0.2454	0.6627	0.9352	0.013
Mof_H 	H 	0.2947	0.7624	0.9828	-0.007
Mof_H 	H 	0.2537	0.722	0.9595	0.019
Mof_C 	C 	0.2766	0.7531	0.9803	-0.149
Mof_H 	H 	0.2952	0.7617	0.9859	0.036
Mof_H 	H 	0.2786	0.7451	0.9608	0.015
Mof_O 	O 	0.21527	0.82672	0.96986	-0.485
Mof_O 	O 	0.18232	0.86032	0.96984	-0.497
Mof_C 	C 	0.20401	0.8488	0.9601	0.444
Mof_C 	C 	0.21966	0.86398	0.93682	-0.156
Mof_C 	C 	0.20758	0.88726	0.92476	0.048
Mof_H 	H 	0.1901	0.8944	0.9324	0.026
Mof_C 	C 	0.25867	0.86615	0.90346	-0.166
Mof_H 	H 	0.2762	0.8584	0.8964	0.084
Mof_C 	C 	0.24581	0.85341	0.92632	0.088
Mof_H 	H 	0.2546	0.8373	0.9352	0.013
Mof_H 	H 	0.2053	0.7376	0.9828	-0.007
Mof_H 	H 	0.2463	0.778	0.9595	0.019
Mof_C 	C 	0.2234	0.7469	0.9803	-0.149
Mof_H 	H 	0.2048	0.7383	0.9859	0.036
Mof_H 	H 	0.2214	0.7549	0.9608	0.015
Mof_O 	O 	0.21527	0.32672	0.46986	-0.487
Mof_O 	O 	0.18232	0.36032	0.46984	-0.499
Mof_C 	C 	0.20401	0.3488	0.4601	0.445
Mof_C 	C 	0.21966	0.36398	0.43682	-0.158
Mof_C 	C 	0.20758	0.38726	0.42476	0.048
Mof_H 	H 	0.1901	0.3944	0.4324	0.025
Mof_C 	C 	0.25867	0.36615	0.40346	-0.167
Mof_H 	H 	0.2762	0.3584	0.3964	0.084
Mof_C 	C 	0.24581	0.35341	0.42632	0.088
Mof_H 	H 	0.2546	0.3373	0.4352	0.013
Mof_H 	H 	0.2053	0.2376	0.4828	-0.003
Mof_H 	H 	0.2463	0.278	0.4595	0.019
Mof_C 	C 	0.2234	0.2469	0.4803	-0.122
Mof_H 	H 	0.2048	0.2383	0.4859	0.032
Mof_H 	H 	0.2214	0.2549	0.4608	0.016
Mof_O 	O 	0.71527	0.82672	0.46986	-0.486
Mof_O 	O 	0.68232	0.86032	0.46984	-0.499
Mof_C 	C 	0.70401	0.8488	0.4601	0.444
Mof_C 	C 	0.71966	0.86398	0.43682	-0.157
Mof_C 	C 	0.70758	0.88726	0.42476	0.048
Mof_H 	H 	0.6901	0.8944	0.4324	0.026
Mof_C 	C 	0.75867	0.86615	0.40346	-0.166
Mof_H 	H 	0.7762	0.8584	0.3964	0.084
Mof_C 	C 	0.74581	0.85341	0.42632	0.088
Mof_H 	H 	0.7546	0.8373	0.4352	0.013
Mof_H 	H 	0.7053	0.7376	0.4828	-0.003
Mof_H 	H 	0.7463	0.778	0.4595	0.019
Mof_C 	C 	0.7234	0.7469	0.4803	-0.122
Mof_H 	H 	0.7048	0.7383	0.4859	0.032
Mof_H 	H 	0.7214	0.7549	0.4608	0.016
Mof_O 	O 	0.71527	0.32672	0.96986	-0.485
Mof_O 	O 	0.68232	0.36032	0.96984	-0.497
Mof_C 	C 	0.70401	0.3488	0.9601	0.444
Mof_C 	C 	0.71966	0.36398	0.93682	-0.157
Mof_C 	C 	0.70758	0.38726	0.92476	0.048
Mof_H 	H 	0.6901	0.3944	0.9324	0.026
Mof_C 	C 	0.75867	0.36615	0.90346	-0.166
Mof_H 	H 	0.7762	0.3584	0.8964	0.084
Mof_C 	C 	0.74581	0.35341	0.92632	0.088
Mof_H 	H 	0.7546	0.3373	0.9352	0.013
Mof_H 	H 	0.7053	0.2376	0.9828	-0.007
Mof_H 	H 	0.7463	0.278	0.9595	0.019
Mof_C 	C 	0.7234	0.2469	0.9803	-0.149
Mof_H 	H 	0.7048	0.2383	0.9859	0.036
Mof_H 	H 	0.7214	0.2549	0.9608	0.015
Mof_O 	O 	0.82672	0.96986	0.21527	-0.485
Mof_O 	O 	0.86032	0.96984	0.18232	-0.497
Mof_C 	C 	0.8488	0.9601	0.20401	0.444
Mof_C 	C 	0.86398	0.93682	0.21966	-0.156
Mof_C 	C 	0.88726	0.92476	0.20758	0.048
Mof_H 	H 	0.8944	0.9324	0.1901	0.026
Mof_C 	C 	0.86615	0.90346	0.25867	-0.166
Mof_H 	H 	0.8584	0.8964	0.2762	0.084
Mof_C 	C 	0.85341	0.92632	0.24581	0.088
Mof_H 	H 	0.8373	0.9352	0.2546	0.013
Mof_H 	H 	0.7376	0.9828	0.2053	-0.007
Mof_H 	H 	0.778	0.9595	0.2463	0.019
Mof_C 	C 	0.7469	0.9803	0.2234	-0.149
Mof_H 	H 	0.7383	0.9859	0.2048	0.036
Mof_H 	H 	0.7549	0.9608	0.2214	0.015
Mof_O 	O 	0.82672	0.46986	0.71527	-0.486
Mof_O 	O 	0.86032	0.46984	0.68232	-0.499
Mof_C 	C 	0.8488	0.4601	0.70401	0.444
Mof_C 	C 	0.86398	0.43682	0.71966	-0.157
Mof_C 	C 	0.88726	0.42476	0.70758	0.048
Mof_H 	H 	0.8944	0.4324	0.6901	0.026
Mof_C 	C 	0.86615	0.40346	0.75867	-0.166
Mof_H 	H 	0.8584	0.3964	0.7762	0.084
Mof_C 	C 	0.85341	0.42632	0.74581	0.088
Mof_H 	H 	0.8373	0.4352	0.7546	0.013
Mof_H 	H 	0.7376	0.4828	0.7053	-0.003
Mof_H 	H 	0.778	0.4595	0.7463	0.019
Mof_C 	C 	0.7469	0.4803	0.7234	-0.122
Mof_H 	H 	0.7383	0.4859	0.7048	0.032
Mof_H 	H 	0.7549	0.4608	0.7214	0.016
Mof_O 	O 	0.32672	0.96986	0.71527	-0.485
Mof_O 	O 	0.36032	0.96984	0.68232	-0.497
Mof_C 	C 	0.3488	0.9601	0.70401	0.444
Mof_C 	C 	0.36398	0.93682	0.71966	-0.157
Mof_C 	C 	0.38726	0.92476	0.70758	0.048
Mof_H 	H 	0.3944	0.9324	0.6901	0.026
Mof_C 	C 	0.36615	0.90346	0.75867	-0.166
Mof_H 	H 	0.3584	0.8964	0.7762	0.084
Mof_C 	C 	0.35341	0.92632	0.74581	0.088
Mof_H 	H 	0.3373	0.9352	0.7546	0.013
Mof_H 	H 	0.2376	0.9828	0.7053	-0.007
Mof_H 	H 	0.278	0.9595	0.7463	0.019
Mof_C 	C 	0.2469	0.9803	0.7234	-0.149
Mof_H 	H 	0.2383	0.9859	0.7048	0.036
Mof_H 	H 	0.2549	0.9608	0.7214	0.015
Mof_O 	O 	0.32672	0.46986	0.21527	-0.487
Mof_O 	O 	0.36032	0.46984	0.18232	-0.499
Mof_C 	C 	0.3488	0.4601	0.20401	0.445
Mof_C 	C 	0.36398	0.43682	0.21966	-0.158
Mof_C 	C 	0.38726	0.42476	0.20758	0.048
Mof_H 	H 	0.3944	0.4324	0.1901	0.025
Mof_C 	C 	0.36615	0.40346	0.25867	-0.167
Mof_H 	H 	0.3584	0.3964	0.2762	0.084
Mof_C 	C 	0.35341	0.42632	0.24581	0.088
Mof_H 	H 	0.3373	0.4352	0.2546	0.013
Mof_H 	H 	0.2376	0.4828	0.2053	-0.003
Mof_H 	H 	0.278	0.4595	0.2463	0.019
Mof_C 	C 	0.2469	0.4803	0.2234	-0.122
Mof_H 	H 	0.2383	0.4859	0.2048	0.032
Mof_H 	H 	0.2549	0.4608	0.2214	0.016
Mof_O 	O 	0.17328	0.96986	0.78473	-0.485
Mof_O 	O 	0.13968	0.96984	0.81768	-0.497
Mof_C 	C 	0.1512	0.9601	0.79599	0.444
Mof_C 	C 	0.13602	0.93682	0.78034	-0.157
Mof_C 	C 	0.11274	0.92476	0.79242	0.048
Mof_H 	H 	0.1056	0.9324	0.8099	0.026
Mof_C 	C 	0.13385	0.90346	0.74133	-0.166
Mof_H 	H 	0.1416	0.8964	0.7238	0.084
Mof_C 	C 	0.14659	0.92632	0.75419	0.088
Mof_H 	H 	0.1627	0.9352	0.7454	0.013
Mof_H 	H 	0.2624	0.9828	0.7947	-0.007
Mof_H 	H 	0.222	0.9595	0.7537	0.019
Mof_C 	C 	0.2531	0.9803	0.7766	-0.149
Mof_H 	H 	0.2617	0.9859	0.7952	0.036
Mof_H 	H 	0.2451	0.9608	0.7786	0.015
Mof_O 	O 	0.17328	0.46986	0.28473	-0.487
Mof_O 	O 	0.13968	0.46984	0.31768	-0.499
Mof_C 	C 	0.1512	0.4601	0.29599	0.445
Mof_C 	C 	0.13602	0.43682	0.28034	-0.158
Mof_C 	C 	0.11274	0.42476	0.29242	0.048
Mof_H 	H 	0.1056	0.4324	0.3099	0.025
Mof_C 	C 	0.13385	0.40346	0.24133	-0.167
Mof_H 	H 	0.1416	0.3964	0.2238	0.084
Mof_C 	C 	0.14659	0.42632	0.25419	0.088
Mof_H 	H 	0.1627	0.4352	0.2454	0.013
Mof_H 	H 	0.2624	0.4828	0.2947	-0.003
Mof_H 	H 	0.222	0.4595	0.2537	0.019
Mof_C 	C 	0.2531	0.4803	0.2766	-0.122
Mof_H 	H 	0.2617	0.4859	0.2952	0.032
Mof_H 	H 	0.2451	0.4608	0.2786	0.016
Mof_O 	O 	0.67328	0.96986	0.28473	-0.485
Mof_O 	O 	0.63968	0.96984	0.31768	-0.497
Mof_C 	C 	0.6512	0.9601	0.29599	0.444
Mof_C 	C 	0.63602	0.93682	0.28034	-0.157
Mof_C 	C 	0.61274	0.92476	0.29242	0.048
Mof_H 	H 	0.6056	0.9324	0.3099	0.026
Mof_C 	C 	0.63385	0.90346	0.24133	-0.166
Mof_H 	H 	0.6416	0.8964	0.2238	0.084
Mof_C 	C 	0.64659	0.92632	0.25419	0.088
Mof_H 	H 	0.6627	0.9352	0.2454	0.013
Mof_H 	H 	0.7624	0.9828	0.2947	-0.007
Mof_H 	H 	0.722	0.9595	0.2537	0.019
Mof_C 	C 	0.7531	0.9803	0.2766	-0.149
Mof_H 	H 	0.7617	0.9859	0.2952	0.036
Mof_H 	H 	0.7451	0.9608	0.2786	0.015
Mof_O 	O 	0.67328	0.46986	0.78473	-0.487
Mof_O 	O 	0.63968	0.46984	0.81768	-0.499
Mof_C 	C 	0.6512	0.4601	0.79599	0.444
Mof_C 	C 	0.63602	0.43682	0.78034	-0.157
Mof_C 	C 	0.61274	0.42476	0.79242	0.048
Mof_H 	H 	0.6056	0.4324	0.8099	0.026
Mof_C 	C 	0.63385	0.40346	0.74133	-0.167
Mof_H 	H 	0.6416	0.3964	0.7238	0.084
Mof_C 	C 	0.64659	0.42632	0.75419	0.088
Mof_H 	H 	0.6627	0.4352	0.7454	0.013
Mof_H 	H 	0.7624	0.4828	0.7947	-0.003
Mof_H 	H 	0.722	0.4595	0.7537	0.019
Mof_C 	C 	0.7531	0.4803	0.7766	-0.122
Mof_H 	H 	0.7617	0.4859	0.7952	0.032
Mof_H 	H 	0.7451	0.4608	0.7786	0.016
Mof_O 	O 	0.17328	0.03014	0.21527	-0.487
Mof_O 	O 	0.13968	0.03016	0.18232	-0.5
Mof_C 	C 	0.1512	0.0399	0.20401	0.445
Mof_C 	C 	0.13602	0.06318	0.21966	-0.158
Mof_C 	C 	0.11274	0.07524	0.20758	0.049
Mof_H 	H 	0.1056	0.0676	0.1901	0.025
Mof_C 	C 	0.13385	0.09654	0.25867	-0.167
Mof_H 	H 	0.1416	0.1036	0.2762	0.084
Mof_C 	C 	0.14659	0.07368	0.24581	0.088
Mof_H 	H 	0.1627	0.0648	0.2546	0.013
Mof_H 	H 	0.2624	0.0172	0.2053	-0.009
Mof_H 	H 	0.222	0.0405	0.2463	0.019
Mof_C 	C 	0.2531	0.0197	0.2234	-0.156
Mof_H 	H 	0.2617	0.0141	0.2048	0.037
Mof_H 	H 	0.2451	0.0392	0.2214	0.015
Mof_O 	O 	0.17328	0.53014	0.71527	-0.487
Mof_O 	O 	0.13968	0.53016	0.68232	-0.499
Mof_C 	C 	0.1512	0.5399	0.70401	0.445
Mof_C 	C 	0.13602	0.56318	0.71966	-0.158
Mof_C 	C 	0.11274	0.57524	0.70758	0.048
Mof_H 	H 	0.1056	0.5676	0.6901	0.025
Mof_C 	C 	0.13385	0.59654	0.75867	-0.167
Mof_H 	H 	0.1416	0.6036	0.7762	0.084
Mof_C 	C 	0.14659	0.57368	0.74581	0.088
Mof_H 	H 	0.1627	0.5648	0.7546	0.013
Mof_H 	H 	0.2624	0.5172	0.7053	-0.003
Mof_H 	H 	0.222	0.5405	0.7463	0.019
Mof_C 	C 	0.2531	0.5197	0.7234	-0.122
Mof_H 	H 	0.2617	0.5141	0.7048	0.032
Mof_H 	H 	0.2451	0.5392	0.7214	0.016
Mof_O 	O 	0.67328	0.03014	0.71527	-0.487
Mof_O 	O 	0.63968	0.03016	0.68232	-0.5
Mof_C 	C 	0.6512	0.0399	0.70401	0.445
Mof_C 	C 	0.63602	0.06318	0.71966	-0.158
Mof_C 	C 	0.61274	0.07524	0.70758	0.048
Mof_H 	H 	0.6056	0.0676	0.6901	0.025
Mof_C 	C 	0.63385	0.09654	0.75867	-0.167
Mof_H 	H 	0.6416	0.1036	0.7762	0.084
Mof_C 	C 	0.64659	0.07368	0.74581	0.088
Mof_H 	H 	0.6627	0.0648	0.7546	0.013
Mof_H 	H 	0.7624	0.0172	0.7053	-0.009
Mof_H 	H 	0.722	0.0405	0.7463	0.019
Mof_C 	C 	0.7531	0.0197	0.7234	-0.156
Mof_H 	H 	0.7617	0.0141	0.7048	0.037
Mof_H 	H 	0.7451	0.0392	0.7214	0.015
Mof_O 	O 	0.67328	0.53014	0.21527	-0.487
Mof_O 	O 	0.63968	0.53016	0.18232	-0.499
Mof_C 	C 	0.6512	0.5399	0.20401	0.445
Mof_C 	C 	0.63602	0.56318	0.21966	-0.158
Mof_C 	C 	0.61274	0.57524	0.20758	0.048
Mof_H 	H 	0.6056	0.5676	0.1901	0.025
Mof_C 	C 	0.63385	0.59654	0.25867	-0.167
Mof_H 	H 	0.6416	0.6036	0.2762	0.084
Mof_C 	C 	0.64659	0.57368	0.24581	0.088
Mof_H 	H 	0.6627	0.5648	0.2546	0.013
Mof_H 	H 	0.7624	0.5172	0.2053	-0.003
Mof_H 	H 	0.722	0.5405	0.2463	0.019
Mof_C 	C 	0.7531	0.5197	0.2234	-0.122
Mof_H 	H 	0.7617	0.5141	0.2048	0.032
Mof_H 	H 	0.7451	0.5392	0.2214	0.016
Mof_O 	O 	0.82672	0.03014	0.78473	-0.487
Mof_O 	O 	0.86032	0.03016	0.81768	-0.5
Mof_C 	C 	0.8488	0.0399	0.79599	0.444
Mof_C 	C 	0.86398	0.06318	0.78034	-0.158
Mof_C 	C 	0.88726	0.07524	0.79242	0.048
Mof_H 	H 	0.8944	0.0676	0.8099	0.026
Mof_C 	C 	0.86615	0.09654	0.74133	-0.167
Mof_H 	H 	0.8584	0.1036	0.7238	0.084
Mof_C 	C 	0.85341	0.07368	0.75419	0.088
Mof_H 	H 	0.8373	0.0648	0.7454	0.013
Mof_H 	H 	0.7376	0.0172	0.7947	-0.009
Mof_H 	H 	0.778	0.0405	0.7537	0.019
Mof_C 	C 	0.7469	0.0197	0.7766	-0.156
Mof_H 	H 	0.7383	0.0141	0.7952	0.037
Mof_H 	H 	0.7549	0.0392	0.7786	0.015
Mof_O 	O 	0.82672	0.53014	0.28473	-0.486
Mof_O 	O 	0.86032	0.53016	0.31768	-0.499
Mof_C 	C 	0.8488	0.5399	0.29599	0.444
Mof_C 	C 	0.86398	0.56318	0.28034	-0.157
Mof_C 	C 	0.88726	0.57524	0.29242	0.048
Mof_H 	H 	0.8944	0.5676	0.3099	0.026
Mof_C 	C 	0.86615	0.59654	0.24133	-0.166
Mof_H 	H 	0.8584	0.6036	0.2238	0.084
Mof_C 	C 	0.85341	0.57368	0.25419	0.088
Mof_H 	H 	0.8373	0.5648	0.2454	0.013
Mof_H 	H 	0.7376	0.5172	0.2947	-0.003
Mof_H 	H 	0.778	0.5405	0.2537	0.019
Mof_C 	C 	0.7469	0.5197	0.2766	-0.122
Mof_H 	H 	0.7383	0.5141	0.2952	0.032
Mof_H 	H 	0.7549	0.5392	0.2786	0.016
Mof_O 	O 	0.32672	0.03014	0.28473	-0.487
Mof_O 	O 	0.36032	0.03016	0.31768	-0.5
Mof_C 	C 	0.3488	0.0399	0.29599	0.445
Mof_C 	C 	0.36398	0.06318	0.28034	-0.158
Mof_C 	C 	0.38726	0.07524	0.29242	0.048
Mof_H 	H 	0.3944	0.0676	0.3099	0.025
Mof_C 	C 	0.36615	0.09654	0.24133	-0.167
Mof_H 	H 	0.3584	0.1036	0.2238	0.084
Mof_C 	C 	0.35341	0.07368	0.25419	0.088
Mof_H 	H 	0.3373	0.0648	0.2454	0.013
Mof_H 	H 	0.2376	0.0172	0.2947	-0.009
Mof_H 	H 	0.278	0.0405	0.2537	0.019
Mof_C 	C 	0.2469	0.0197	0.2766	-0.156
Mof_H 	H 	0.2383	0.0141	0.2952	0.037
Mof_H 	H 	0.2549	0.0392	0.2786	0.015
Mof_O 	O 	0.32672	0.53014	0.78473	-0.487
Mof_O 	O 	0.36032	0.53016	0.81768	-0.499
Mof_C 	C 	0.3488	0.5399	0.79599	0.444
Mof_C 	C 	0.36398	0.56318	0.78034	-0.157
Mof_C 	C 	0.38726	0.57524	0.79242	0.048
Mof_H 	H 	0.3944	0.5676	0.8099	0.026
Mof_C 	C 	0.36615	0.59654	0.74133	-0.167
Mof_H 	H 	0.3584	0.6036	0.7238	0.084
Mof_C 	C 	0.35341	0.57368	0.75419	0.088
Mof_H 	H 	0.3373	0.5648	0.7454	0.013
Mof_H 	H 	0.2376	0.5172	0.7947	-0.003
Mof_H 	H 	0.278	0.5405	0.7537	0.019
Mof_C 	C 	0.2469	0.5197	0.7766	-0.122
Mof_H 	H 	0.2383	0.5141	0.7952	0.032
Mof_H 	H 	0.2549	0.5392	0.7786	0.016
Mof_O 	O 	0.96986	0.78473	0.17328	-0.485
Mof_O 	O 	0.96984	0.81768	0.13968	-0.497
Mof_C 	C 	0.9601	0.79599	0.1512	0.444
Mof_C 	C 	0.93682	0.78034	0.13602	-0.157
Mof_C 	C 	0.92476	0.79242	0.11274	0.048
Mof_H 	H 	0.9324	0.8099	0.1056	0.026
Mof_C 	C 	0.90346	0.74133	0.13385	-0.166
Mof_H 	H 	0.8964	0.7238	0.1416	0.084
Mof_C 	C 	0.92632	0.75419	0.14659	0.088
Mof_H 	H 	0.9352	0.7454	0.1627	0.013
Mof_H 	H 	0.9828	0.7947	0.2624	-0.007
Mof_H 	H 	0.9595	0.7537	0.222	0.019
Mof_C 	C 	0.9803	0.7766	0.2531	-0.149
Mof_H 	H 	0.9859	0.7952	0.2617	0.036
Mof_H 	H 	0.9608	0.7786	0.2451	0.015
Mof_O 	O 	0.96986	0.28473	0.67328	-0.485
Mof_O 	O 	0.96984	0.31768	0.63968	-0.497
Mof_C 	C 	0.9601	0.29599	0.6512	0.444
Mof_C 	C 	0.93682	0.28034	0.63602	-0.157
Mof_C 	C 	0.92476	0.29242	0.61274	0.048
Mof_H 	H 	0.9324	0.3099	0.6056	0.026
Mof_C 	C 	0.90346	0.24133	0.63385	-0.166
Mof_H 	H 	0.8964	0.2238	0.6416	0.084
Mof_C 	C 	0.92632	0.25419	0.64659	0.088
Mof_H 	H 	0.9352	0.2454	0.6627	0.013
Mof_H 	H 	0.9828	0.2947	0.7624	-0.007
Mof_H 	H 	0.9595	0.2537	0.722	0.019
Mof_C 	C 	0.9803	0.2766	0.7531	-0.149
Mof_H 	H 	0.9859	0.2952	0.7617	0.036
Mof_H 	H 	0.9608	0.2786	0.7451	0.015
Mof_O 	O 	0.46986	0.78473	0.67328	-0.487
Mof_O 	O 	0.46984	0.81768	0.63968	-0.499
Mof_C 	C 	0.4601	0.79599	0.6512	0.444
Mof_C 	C 	0.43682	0.78034	0.63602	-0.157
Mof_C 	C 	0.42476	0.79242	0.61274	0.048
Mof_H 	H 	0.4324	0.8099	0.6056	0.026
Mof_C 	C 	0.40346	0.74133	0.63385	-0.167
Mof_H 	H 	0.3964	0.7238	0.6416	0.084
Mof_C 	C 	0.42632	0.75419	0.64659	0.088
Mof_H 	H 	0.4352	0.7454	0.6627	0.013
Mof_H 	H 	0.4828	0.7947	0.7624	-0.003
Mof_H 	H 	0.4595	0.7537	0.722	0.019
Mof_C 	C 	0.4803	0.7766	0.7531	-0.122
Mof_H 	H 	0.4859	0.7952	0.7617	0.032
Mof_H 	H 	0.4608	0.7786	0.7451	0.016
Mof_O 	O 	0.46986	0.28473	0.17328	-0.487
Mof_O 	O 	0.46984	0.31768	0.13968	-0.499
Mof_C 	C 	0.4601	0.29599	0.1512	0.445
Mof_C 	C 	0.43682	0.28034	0.13602	-0.158
Mof_C 	C 	0.42476	0.29242	0.11274	0.048
Mof_H 	H 	0.4324	0.3099	0.1056	0.025
Mof_C 	C 	0.40346	0.24133	0.13385	-0.167
Mof_H 	H 	0.3964	0.2238	0.1416	0.084
Mof_C 	C 	0.42632	0.25419	0.14659	0.088
Mof_H 	H 	0.4352	0.2454	0.1627	0.013
Mof_H 	H 	0.4828	0.2947	0.2624	-0.003
Mof_H 	H 	0.4595	0.2537	0.222	0.019
Mof_C 	C 	0.4803	0.2766	0.2531	-0.122
Mof_H 	H 	0.4859	0.2952	0.2617	0.032
Mof_H 	H 	0.4608	0.2786	0.2451	0.016
Mof_O 	O 	0.96986	0.21527	0.82672	-0.485
Mof_O 	O 	0.96984	0.18232	0.86032	-0.497
Mof_C 	C 	0.9601	0.20401	0.8488	0.444
Mof_C 	C 	0.93682	0.21966	0.86398	-0.156
Mof_C 	C 	0.92476	0.20758	0.88726	0.048
Mof_H 	H 	0.9324	0.1901	0.8944	0.026
Mof_C 	C 	0.90346	0.25867	0.86615	-0.166
Mof_H 	H 	0.8964	0.2762	0.8584	0.084
Mof_C 	C 	0.92632	0.24581	0.85341	0.088
Mof_H 	H 	0.9352	0.2546	0.8373	0.013
Mof_H 	H 	0.9828	0.2053	0.7376	-0.007
Mof_H 	H 	0.9595	0.2463	0.778	0.019
Mof_C 	C 	0.9803	0.2234	0.7469	-0.149
Mof_H 	H 	0.9859	0.2048	0.7383	0.036
Mof_H 	H 	0.9608	0.2214	0.7549	0.015
Mof_O 	O 	0.96986	0.71527	0.32672	-0.485
Mof_O 	O 	0.96984	0.68232	0.36032	-0.497
Mof_C 	C 	0.9601	0.70401	0.3488	0.444
Mof_C 	C 	0.93682	0.71966	0.36398	-0.157
Mof_C 	C 	0.92476	0.70758	0.38726	0.048
Mof_H 	H 	0.9324	0.6901	0.3944	0.026
Mof_C 	C 	0.90346	0.75867	0.36615	-0.166
Mof_H 	H 	0.8964	0.7762	0.3584	0.084
Mof_C 	C 	0.92632	0.74581	0.35341	0.088
Mof_H 	H 	0.9352	0.7546	0.3373	0.013
Mof_H 	H 	0.9828	0.7053	0.2376	-0.007
Mof_H 	H 	0.9595	0.7463	0.278	0.019
Mof_C 	C 	0.9803	0.7234	0.2469	-0.149
Mof_H 	H 	0.9859	0.7048	0.2383	0.036
Mof_H 	H 	0.9608	0.7214	0.2549	0.015
Mof_O 	O 	0.46986	0.21527	0.32672	-0.487
Mof_O 	O 	0.46984	0.18232	0.36032	-0.499
Mof_C 	C 	0.4601	0.20401	0.3488	0.445
Mof_C 	C 	0.43682	0.21966	0.36398	-0.158
Mof_C 	C 	0.42476	0.20758	0.38726	0.048
Mof_H 	H 	0.4324	0.1901	0.3944	0.025
Mof_C 	C 	0.40346	0.25867	0.36615	-0.167
Mof_H 	H 	0.3964	0.2762	0.3584	0.084
Mof_C 	C 	0.42632	0.24581	0.35341	0.088
Mof_H 	H 	0.4352	0.2546	0.3373	0.013
Mof_H 	H 	0.4828	0.2053	0.2376	-0.003
Mof_H 	H 	0.4595	0.2463	0.278	0.019
Mof_C 	C 	0.4803	0.2234	0.2469	-0.122
Mof_H 	H 	0.4859	0.2048	0.2383	0.032
Mof_H 	H 	0.4608	0.2214	0.2549	0.016
Mof_O 	O 	0.46986	0.71527	0.82672	-0.486
Mof_O 	O 	0.46984	0.68232	0.86032	-0.499
Mof_C 	C 	0.4601	0.70401	0.8488	0.444
Mof_C 	C 	0.43682	0.71966	0.86398	-0.157
Mof_C 	C 	0.42476	0.70758	0.88726	0.048
Mof_H 	H 	0.4324	0.6901	0.8944	0.026
Mof_C 	C 	0.40346	0.75867	0.86615	-0.166
Mof_H 	H 	0.3964	0.7762	0.8584	0.084
Mof_C 	C 	0.42632	0.74581	0.85341	0.088
Mof_H 	H 	0.4352	0.7546	0.8373	0.013
Mof_H 	H 	0.4828	0.7053	0.7376	-0.003
Mof_H 	H 	0.4595	0.7463	0.778	0.019
Mof_C 	C 	0.4803	0.7234	0.7469	-0.122
Mof_H 	H 	0.4859	0.7048	0.7383	0.032
Mof_H 	H 	0.4608	0.7214	0.7549	0.016
Mof_O 	O 	0.03014	0.78473	0.82672	-0.487
Mof_O 	O 	0.03016	0.81768	0.86032	-0.5
Mof_C 	C 	0.0399	0.79599	0.8488	0.444
Mof_C 	C 	0.06318	0.78034	0.86398	-0.158
Mof_C 	C 	0.07524	0.79242	0.88726	0.048
Mof_H 	H 	0.0676	0.8099	0.8944	0.026
Mof_C 	C 	0.09654	0.74133	0.86615	-0.167
Mof_H 	H 	0.1036	0.7238	0.8584	0.084
Mof_C 	C 	0.07368	0.75419	0.85341	0.088
Mof_H 	H 	0.0648	0.7454	0.8373	0.013
Mof_H 	H 	0.0172	0.7947	0.7376	-0.009
Mof_H 	H 	0.0405	0.7537	0.778	0.019
Mof_C 	C 	0.0197	0.7766	0.7469	-0.156
Mof_H 	H 	0.0141	0.7952	0.7383	0.037
Mof_H 	H 	0.0392	0.7786	0.7549	0.015
Mof_O 	O 	0.03014	0.28473	0.32672	-0.487
Mof_O 	O 	0.03016	0.31768	0.36032	-0.5
Mof_C 	C 	0.0399	0.29599	0.3488	0.445
Mof_C 	C 	0.06318	0.28034	0.36398	-0.158
Mof_C 	C 	0.07524	0.29242	0.38726	0.048
Mof_H 	H 	0.0676	0.3099	0.3944	0.025
Mof_C 	C 	0.09654	0.24133	0.36615	-0.167
Mof_H 	H 	0.1036	0.2238	0.3584	0.084
Mof_C 	C 	0.07368	0.25419	0.35341	0.088
Mof_H 	H 	0.0648	0.2454	0.3373	0.013
Mof_H 	H 	0.0172	0.2947	0.2376	-0.009
Mof_H 	H 	0.0405	0.2537	0.278	0.019
Mof_C 	C 	0.0197	0.2766	0.2469	-0.156
Mof_H 	H 	0.0141	0.2952	0.2383	0.037
Mof_H 	H 	0.0392	0.2786	0.2549	0.015
Mof_O 	O 	0.53014	0.78473	0.32672	-0.487
Mof_O 	O 	0.53016	0.81768	0.36032	-0.499
Mof_C 	C 	0.5399	0.79599	0.3488	0.444
Mof_C 	C 	0.56318	0.78034	0.36398	-0.157
Mof_C 	C 	0.57524	0.79242	0.38726	0.048
Mof_H 	H 	0.5676	0.8099	0.3944	0.026
Mof_C 	C 	0.59654	0.74133	0.36615	-0.167
Mof_H 	H 	0.6036	0.7238	0.3584	0.084
Mof_C 	C 	0.57368	0.75419	0.35341	0.088
Mof_H 	H 	0.5648	0.7454	0.3373	0.013
Mof_H 	H 	0.5172	0.7947	0.2376	-0.003
Mof_H 	H 	0.5405	0.7537	0.278	0.019
Mof_C 	C 	0.5197	0.7766	0.2469	-0.122
Mof_H 	H 	0.5141	0.7952	0.2383	0.032
Mof_H 	H 	0.5392	0.7786	0.2549	0.016
Mof_O 	O 	0.53014	0.28473	0.82672	-0.486
Mof_O 	O 	0.53016	0.31768	0.86032	-0.499
Mof_C 	C 	0.5399	0.29599	0.8488	0.444
Mof_C 	C 	0.56318	0.28034	0.86398	-0.157
Mof_C 	C 	0.57524	0.29242	0.88726	0.048
Mof_H 	H 	0.5676	0.3099	0.8944	0.026
Mof_C 	C 	0.59654	0.24133	0.86615	-0.166
Mof_H 	H 	0.6036	0.2238	0.8584	0.084
Mof_C 	C 	0.57368	0.25419	0.85341	0.088
Mof_H 	H 	0.5648	0.2454	0.8373	0.013
Mof_H 	H 	0.5172	0.2947	0.7376	-0.003
Mof_H 	H 	0.5405	0.2537	0.778	0.019
Mof_C 	C 	0.5197	0.2766	0.7469	-0.122
Mof_H 	H 	0.5141	0.2952	0.7383	0.032
Mof_H 	H 	0.5392	0.2786	0.7549	0.016
Mof_O 	O 	0.03014	0.21527	0.17328	-0.487
Mof_O 	O 	0.03016	0.18232	0.13968	-0.5
Mof_C 	C 	0.0399	0.20401	0.1512	0.445
Mof_C 	C 	0.06318	0.21966	0.13602	-0.158
Mof_C 	C 	0.07524	0.20758	0.11274	0.049
Mof_H 	H 	0.0676	0.1901	0.1056	0.025
Mof_C 	C 	0.09654	0.25867	0.13385	-0.167
Mof_H 	H 	0.1036	0.2762	0.1416	0.084
Mof_C 	C 	0.07368	0.24581	0.14659	0.088
Mof_H 	H 	0.0648	0.2546	0.1627	0.013
Mof_H 	H 	0.0172	0.2053	0.2624	-0.009
Mof_H 	H 	0.0405	0.2463	0.222	0.019
Mof_C 	C 	0.0197	0.2234	0.2531	-0.156
Mof_H 	H 	0.0141	0.2048	0.2617	0.037
Mof_H 	H 	0.0392	0.2214	0.2451	0.015
Mof_O 	O 	0.03014	0.71527	0.67328	-0.487
Mof_O 	O 	0.03016	0.68232	0.63968	-0.5
Mof_C 	C 	0.0399	0.70401	0.6512	0.445
Mof_C 	C 	0.06318	0.71966	0.63602	-0.158
Mof_C 	C 	0.07524	0.70758	0.61274	0.048
Mof_H 	H 	0.0676	0.6901	0.6056	0.025
Mof_C 	C 	0.09654	0.75867	0.63385	-0.167
Mof_H 	H 	0.1036	0.7762	0.6416	0.084
Mof_C 	C 	0.07368	0.74581	0.64659	0.088
Mof_H 	H 	0.0648	0.7546	0.6627	0.013
Mof_H 	H 	0.0172	0.7053	0.7624	-0.009
Mof_H 	H 	0.0405	0.7463	0.722	0.019
Mof_C 	C 	0.0197	0.7234	0.7531	-0.156
Mof_H 	H 	0.0141	0.7048	0.7617	0.037
Mof_H 	H 	0.0392	0.7214	0.7451	0.015
Mof_O 	O 	0.53014	0.21527	0.67328	-0.487
Mof_O 	O 	0.53016	0.18232	0.63968	-0.499
Mof_C 	C 	0.5399	0.20401	0.6512	0.445
Mof_C 	C 	0.56318	0.21966	0.63602	-0.158
Mof_C 	C 	0.57524	0.20758	0.61274	0.048
Mof_H 	H 	0.5676	0.1901	0.6056	0.025
Mof_C 	C 	0.59654	0.25867	0.63385	-0.167
Mof_H 	H 	0.6036	0.2762	0.6416	0.084
Mof_C 	C 	0.57368	0.24581	0.64659	0.088
Mof_H 	H 	0.5648	0.2546	0.6627	0.013
Mof_H 	H 	0.5172	0.2053	0.7624	-0.003
Mof_H 	H 	0.5405	0.2463	0.722	0.019
Mof_C 	C 	0.5197	0.2234	0.7531	-0.122
Mof_H 	H 	0.5141	0.2048	0.7617	0.032
Mof_H 	H 	0.5392	0.2214	0.7451	0.016
Mof_O 	O 	0.53014	0.71527	0.17328	-0.487
Mof_O 	O 	0.53016	0.68232	0.13968	-0.499
Mof_C 	C 	0.5399	0.70401	0.1512	0.445
Mof_C 	C 	0.56318	0.71966	0.13602	-0.158
Mof_C 	C 	0.57524	0.70758	0.11274	0.048
Mof_H 	H 	0.5676	0.6901	0.1056	0.025
Mof_C 	C 	0.59654	0.75867	0.13385	-0.167
Mof_H 	H 	0.6036	0.7762	0.1416	0.084
Mof_C 	C 	0.57368	0.74581	0.14659	0.088
Mof_H 	H 	0.5648	0.7546	0.1627	0.013
Mof_H 	H 	0.5172	0.7053	0.2624	-0.003
Mof_H 	H 	0.5405	0.7463	0.222	0.019
Mof_C 	C 	0.5197	0.7234	0.2531	-0.122
Mof_H 	H 	0.5141	0.7048	0.2617	0.032
Mof_H 	H 	0.5392	0.7214	0.2451	0.016
Mof_Zn	Zn	0.19981	0.19981	-0	1.222
Mof_Zn	Zn	0.15538	0.15538	-0	1.199
Mof_N 	N 	0.23071	0.23071	-0	-0.18
Mof_Zn	Zn	0.19981	0.69981	0.5	1.223
Mof_Zn	Zn	0.15538	0.65538	0.5	1.201
Mof_N 	N 	0.23071	0.73071	0.5	-0.182
Mof_Zn	Zn	0.69981	0.19981	0.5	1.223
Mof_Zn	Zn	0.65538	0.15538	0.5	1.201
Mof_N 	N 	0.73071	0.23071	0.5	-0.182
Mof_Zn	Zn	0.69981	0.69981	-0	1.222
Mof_Zn	Zn	0.65538	0.65538	-0	1.2
Mof_N 	N 	0.73071	0.73071	-0	-0.18
Mof_Zn	Zn	0.80019	0.80019	-0	1.222
Mof_Zn	Zn	0.84462	0.84462	-0	1.2
Mof_N 	N 	0.76929	0.76929	-0	-0.18
Mof_Zn	Zn	0.80019	0.30019	0.5	1.223
Mof_Zn	Zn	0.84462	0.34462	0.5	1.201
Mof_N 	N 	0.76929	0.26929	0.5	-0.182
Mof_Zn	Zn	0.30019	0.80019	0.5	1.223
Mof_Zn	Zn	0.34462	0.84462	0.5	1.201
Mof_N 	N 	0.26929	0.76929	0.5	-0.182
Mof_Zn	Zn	0.30019	0.30019	-0	1.222
Mof_Zn	Zn	0.34462	0.34462	-0	1.2
Mof_N 	N 	0.26929	0.26929	-0	-0.18
Mof_Zn	Zn	0.80019	0.19981	-0	1.222
Mof_Zn	Zn	0.84462	0.15538	-0	1.2
Mof_N 	N 	0.76929	0.23071	-0	-0.18
Mof_Zn	Zn	0.80019	0.69981	0.5	1.223
Mof_Zn	Zn	0.84462	0.65538	0.5	1.201
Mof_N 	N 	0.76929	0.73071	0.5	-0.182
Mof_Zn	Zn	0.30019	0.19981	0.5	1.223
Mof_Zn	Zn	0.34462	0.15538	0.5	1.201
Mof_N 	N 	0.26929	0.23071	0.5	-0.182
Mof_Zn	Zn	0.30019	0.69981	-0	1.222
Mof_Zn	Zn	0.34462	0.65538	-0	1.2
Mof_N 	N 	0.26929	0.73071	-0	-0.18
Mof_Zn	Zn	0.19981	0.80019	-0	1.222
Mof_Zn	Zn	0.15538	0.84462	-0	1.2
Mof_N 	N 	0.23071	0.76929	-0	-0.18
Mof_Zn	Zn	0.19981	0.30019	0.5	1.223
Mof_Zn	Zn	0.15538	0.34462	0.5	1.201
Mof_N 	N 	0.23071	0.26929	0.5	-0.182
Mof_Zn	Zn	0.69981	0.80019	0.5	1.223
Mof_Zn	Zn	0.65538	0.84462	0.5	1.201
Mof_N 	N 	0.73071	0.76929	0.5	-0.182
Mof_Zn	Zn	0.69981	0.30019	-0	1.222
Mof_Zn	Zn	0.65538	0.34462	-0	1.2
Mof_N 	N 	0.73071	0.26929	-0	-0.18
Mof_Zn	Zn	-3.23519e-33	0.19981	0.19981	1.222
Mof_Zn	Zn	5.82582e-34	0.15538	0.15538	1.199
Mof_N 	N 	8.65024e-34	0.23071	0.23071	-0.18
Mof_Zn	Zn	2.62387e-33	0.69981	0.69981	1.222
Mof_Zn	Zn	-5.51143e-33	0.65538	0.65538	1.2
Mof_N 	N 	-1.31977e-32	0.73071	0.73071	-0.18
Mof_Zn	Zn	0.5	0.19981	0.69981	1.223
Mof_Zn	Zn	0.5	0.15538	0.65538	1.201
Mof_N 	N 	0.5	0.23071	0.73071	-0.182
Mof_Zn	Zn	0.5	0.69981	0.19981	1.223
Mof_Zn	Zn	0.5	0.65538	0.15538	1.201
Mof_N 	N 	0.5	0.73071	0.23071	-0.182
Mof_Zn	Zn	3.00023e-33	0.80019	0.80019	1.222
Mof_Zn	Zn	1.91042e-32	0.84462	0.84462	1.2
Mof_N 	N 	2.88438e-33	0.76929	0.76929	-0.18
Mof_Zn	Zn	1.12553e-33	0.30019	0.30019	1.222
Mof_Zn	Zn	1.29212e-33	0.34462	0.34462	1.2
Mof_N 	N 	1.00968e-33	0.26929	0.26929	-0.18
Mof_Zn	Zn	0.5	0.80019	0.30019	1.223
Mof_Zn	Zn	0.5	0.84462	0.34462	1.201
Mof_N 	N 	0.5	0.76929	0.26929	-0.182
Mof_Zn	Zn	0.5	0.30019	0.80019	1.223
Mof_Zn	Zn	0.5	0.34462	0.84462	1.201
Mof_N 	N 	0.5	0.26929	0.76929	-0.182
Mof_Zn	Zn	1.07101e-32	0.80019	0.19981	1.222
Mof_Zn	Zn	1.25356e-32	0.84462	0.15538	1.2
Mof_N 	N 	-3.11933e-33	0.76929	0.23071	-0.18
Mof_Zn	Zn	2.62387e-33	0.30019	0.69981	1.222
Mof_Zn	Zn	-5.51143e-33	0.34462	0.65538	1.2
Mof_N 	N 	-5.22899e-33	0.26929	0.73071	-0.18
Mof_Zn	Zn	0.5	0.80019	0.69981	1.223
Mof_Zn	Zn	0.5	0.84462	0.65538	1.201
Mof_N 	N 	0.5	0.76929	0.73071	-0.182
Mof_Zn	Zn	0.5	0.30019	0.19981	1.223
Mof_Zn	Zn	0.5	0.34462	0.15538	1.201
Mof_N 	N 	0.5	0.26929	0.23071	-0.182
Mof_Zn	Zn	1.09689e-32	0.19981	0.80019	1.222
Mof_Zn	Zn	1.11355e-32	0.15538	0.84462	1.2
Mof_N 	N 	-5.08433e-33	0.23071	0.76929	-0.18
Mof_Zn	Zn	1.12553e-33	0.69981	0.30019	1.222
Mof_Zn	Zn	1.29212e-33	0.65538	0.34462	1.2
Mof_N 	N 	-6.95903e-33	0.73071	0.26929	-0.18
Mof_Zn	Zn	0.5	0.19981	0.30019	1.223
Mof_Zn	Zn	0.5	0.15538	0.34462	1.201
Mof_N 	N 	0.5	0.23071	0.26929	-0.182
Mof_Zn	Zn	0.5	0.69981	0.80019	1.223
Mof_Zn	Zn	0.5	0.65538	0.84462	1.201
Mof_N 	N 	0.5	0.73071	0.76929	-0.182
Mof_Zn	Zn	0.19981	-1.99218e-33	0.19981	1.222
Mof_Zn	Zn	0.15538	0	0.15538	1.199
Mof_N 	N 	0.23071	0	0.23071	-0.18
Mof_Zn	Zn	0.19981	0.5	0.69981	1.223
Mof_Zn	Zn	0.15538	0.5	0.65538	1.201
Mof_N 	N 	0.23071	0.5	0.73071	-0.182
Mof_Zn	Zn	0.69981	0	0.69981	1.222
Mof_Zn	Zn	0.65538	0	0.65538	1.2
Mof_N 	N 	0.73071	-7.96871e-33	0.73071	-0.18
Mof_Zn	Zn	0.69981	0.5	0.19981	1.223
Mof_Zn	Zn	0.65538	0.5	0.15538	1.201
Mof_N 	N 	0.73071	0.5	0.23071	-0.182
Mof_Zn	Zn	0.80019	0	0.80019	1.222
Mof_Zn	Zn	0.84462	7.96871e-33	0.84462	1.2
Mof_N 	N 	0.76929	0	0.76929	-0.18
Mof_Zn	Zn	0.80019	0.5	0.30019	1.223
Mof_Zn	Zn	0.84462	0.5	0.34462	1.201
Mof_N 	N 	0.76929	0.5	0.26929	-0.182
Mof_Zn	Zn	0.30019	0	0.30019	1.222
Mof_Zn	Zn	0.34462	0	0.34462	1.2
Mof_N 	N 	0.26929	0	0.26929	-0.18
Mof_Zn	Zn	0.30019	0.5	0.80019	1.223
Mof_Zn	Zn	0.34462	0.5	0.84462	1.201
Mof_N 	N 	0.26929	0.5	0.76929	-0.182
Mof_Zn	Zn	0.19981	0	0.80019	1.222
Mof_Zn	Zn	0.15538	7.96871e-33	0.84462	1.2
Mof_N 	N 	0.23071	0	0.76929	-0.18
Mof_Zn	Zn	0.19981	0.5	0.30019	1.223
Mof_Zn	Zn	0.15538	0.5	0.34462	1.201
Mof_N 	N 	0.23071	0.5	0.26929	-0.182
Mof_Zn	Zn	0.69981	0	0.30019	1.222
Mof_Zn	Zn	0.65538	0	0.34462	1.2
Mof_N 	N 	0.73071	0	0.26929	-0.18
Mof_Zn	Zn	0.69981	0.5	0.80019	1.223
Mof_Zn	Zn	0.65538	0.5	0.84462	1.201
Mof_N 	N 	0.73071	0.5	0.76929	-0.182
Mof_Zn	Zn	0.80019	-1.99218e-33	0.19981	1.222
Mof_Zn	Zn	0.84462	0	0.15538	1.2
Mof_N 	N 	0.76929	0	0.23071	-0.18
Mof_Zn	Zn	0.80019	0.5	0.69981	1.223
Mof_Zn	Zn	0.84462	0.5	0.65538	1.201
Mof_N 	N 	0.76929	0.5	0.73071	-0.182
Mof_Zn	Zn	0.30019	0	0.69981	1.222
Mof_Zn	Zn	0.34462	0	0.65538	1.2
Mof_N 	N 	0.26929	-7.96871e-33	0.73071	-0.18
Mof_Zn	Zn	0.30019	0.5	0.19981	1.223
Mof_Zn	Zn	0.34462	0.5	0.15538	1.201
Mof_N 	N 	0.26929	0.5	0.23071	-0.182
Mof_C 	C 	0.09874	0.22001	0.09874	-0.072
Mof_C 	C 	0.10997	0.24716	0.10997	0.122
Mof_C 	C 	0.09874	0.72001	0.59874	-0.072
Mof_C 	C 	0.10997	0.74716	0.60997	0.122
Mof_C 	C 	0.59874	0.22001	0.59874	-0.072
Mof_C 	C 	0.60997	0.24716	0.60997	0.122
Mof_C 	C 	0.59874	0.72001	0.09874	-0.072
Mof_C 	C 	0.60997	0.74716	0.10997	0.122
Mof_C 	C 	0.90126	0.77999	0.09874	-0.071
Mof_C 	C 	0.89003	0.75284	0.10997	0.122
Mof_C 	C 	0.90126	0.27999	0.59874	-0.071
Mof_C 	C 	0.89003	0.25284	0.60997	0.122
Mof_C 	C 	0.40126	0.77999	0.59874	-0.071
Mof_C 	C 	0.39003	0.75284	0.60997	0.122
Mof_C 	C 	0.40126	0.27999	0.09874	-0.072
Mof_C 	C 	0.39003	0.25284	0.10997	0.122
Mof_C 	C 	0.90126	0.22001	0.90126	-0.07
Mof_C 	C 	0.89003	0.24716	0.89003	0.122
Mof_C 	C 	0.90126	0.72001	0.40126	-0.071
Mof_C 	C 	0.89003	0.74716	0.39003	0.122
Mof_C 	C 	0.40126	0.22001	0.40126	-0.072
Mof_C 	C 	0.39003	0.24716	0.39003	0.122
Mof_C 	C 	0.40126	0.72001	0.90126	-0.071
Mof_C 	C 	0.39003	0.74716	0.89003	0.122
Mof_C 	C 	0.09874	0.77999	0.90126	-0.071
Mof_C 	C 	0.10997	0.75284	0.89003	0.122
Mof_C 	C 	0.09874	0.27999	0.40126	-0.072
Mof_C 	C 	0.10997	0.25284	0.39003	0.122
Mof_C 	C 	0.59874	0.77999	0.40126	-0.071
Mof_C 	C 	0.60997	0.75284	0.39003	0.122
Mof_C 	C 	0.59874	0.27999	0.90126	-0.071
Mof_C 	C 	0.60997	0.25284	0.89003	0.122
Mof_C 	C 	0.09874	0.09874	0.22001	-0.072
Mof_C 	C 	0.10997	0.10997	0.24716	0.122
Mof_C 	C 	0.09874	0.59874	0.72001	-0.072
Mof_C 	C 	0.10997	0.60997	0.74716	0.122
Mof_C 	C 	0.59874	0.09874	0.72001	-0.072
Mof_C 	C 	0.60997	0.10997	0.74716	0.122
Mof_C 	C 	0.59874	0.59874	0.22001	-0.072
Mof_C 	C 	0.60997	0.60997	0.24716	0.122
Mof_C 	C 	0.09874	0.90126	0.77999	-0.071
Mof_C 	C 	0.10997	0.89003	0.75284	0.122
Mof_C 	C 	0.09874	0.40126	0.27999	-0.072
Mof_C 	C 	0.10997	0.39003	0.25284	0.122
Mof_C 	C 	0.59874	0.90126	0.27999	-0.071
Mof_C 	C 	0.60997	0.89003	0.25284	0.122
Mof_C 	C 	0.59874	0.40126	0.77999	-0.071
Mof_C 	C 	0.60997	0.39003	0.75284	0.122
Mof_C 	C 	0.90126	0.90126	0.22001	-0.07
Mof_C 	C 	0.89003	0.89003	0.24716	0.122
Mof_C 	C 	0.90126	0.40126	0.72001	-0.071
Mof_C 	C 	0.89003	0.39003	0.74716	0.122
Mof_C 	C 	0.40126	0.90126	0.72001	-0.071
Mof_C 	C 	0.39003	0.89003	0.74716	0.122
Mof_C 	C 	0.40126	0.40126	0.22001	-0.072
Mof_C 	C 	0.39003	0.39003	0.24716	0.122
Mof_C 	C 	0.90126	0.09874	0.77999	-0.071
Mof_C 	C 	0.89003	0.10997	0.75284	0.122
Mof_C 	C 	0.90126	0.59874	0.27999	-0.071
Mof_C 	C 	0.89003	0.60997	0.25284	0.122
Mof_C 	C 	0.40126	0.09874	0.27999	-0.072
Mof_C 	C 	0.39003	0.10997	0.25284	0.122
Mof_C 	C 	0.40126	0.59874	0.77999	-0.071
Mof_C 	C 	0.39003	0.60997	0.75284	0.122
Mof_C 	C 	0.22001	0.09874	0.09874	-0.072
Mof_C 	C 	0.24716	0.10997	0.10997	0.122
Mof_C 	C 	0.22001	0.59874	0.59874	-0.072
Mof_C 	C 	0.24716	0.60997	0.60997	0.122
Mof_C 	C 	0.72001	0.09874	0.59874	-0.072
Mof_C 	C 	0.74716	0.10997	0.60997	0.122
Mof_C 	C 	0.72001	0.59874	0.09874	-0.072
Mof_C 	C 	0.74716	0.60997	0.10997	0.122
Mof_C 	C 	0.77999	0.09874	0.90126	-0.071
Mof_C 	C 	0.75284	0.10997	0.89003	0.122
Mof_C 	C 	0.77999	0.59874	0.40126	-0.071
Mof_C 	C 	0.75284	0.60997	0.39003	0.122
Mof_C 	C 	0.27999	0.09874	0.40126	-0.072
Mof_C 	C 	0.25284	0.10997	0.39003	0.122
Mof_C 	C 	0.27999	0.59874	0.90126	-0.071
Mof_C 	C 	0.25284	0.60997	0.89003	0.122
Mof_C 	C 	0.22001	0.90126	0.90126	-0.07
Mof_C 	C 	0.24716	0.89003	0.89003	0.122
Mof_C 	C 	0.22001	0.40126	0.40126	-0.072
Mof_C 	C 	0.24716	0.39003	0.39003	0.122
Mof_C 	C 	0.72001	0.90126	0.40126	-0.071
Mof_C 	C 	0.74716	0.89003	0.39003	0.122
Mof_C 	C 	0.72001	0.40126	0.90126	-0.071
Mof_C 	C 	0.74716	0.39003	0.89003	0.122
Mof_C 	C 	0.77999	0.90126	0.09874	-0.071
Mof_C 	C 	0.75284	0.89003	0.10997	0.122
Mof_C 	C 	0.77999	0.40126	0.59874	-0.071
Mof_C 	C 	0.75284	0.39003	0.60997	0.122
Mof_C 	C 	0.27999	0.90126	0.59874	-0.071
Mof_C 	C 	0.25284	0.89003	0.60997	0.122
Mof_C 	C 	0.27999	0.40126	0.09874	-0.072
Mof_C 	C 	0.25284	0.39003	0.10997	0.122
Mof_C 	C 	0.22001	0.09874	0.90126	-0.071
Mof_C 	C 	0.24716	0.10997	0.89003	0.122
Mof_C 	C 	0.22001	0.59874	0.40126	-0.072
Mof_C 	C 	0.24716	0.60997	0.39003	0.122
Mof_C 	C 	0.72001	0.09874	0.40126	-0.072
Mof_C 	C 	0.74716	0.10997	0.39003	0.122
Mof_C 	C 	0.72001	0.59874	0.90126	-0.071
Mof_C 	C 	0.74716	0.60997	0.89003	0.122
Mof_C 	C 	0.77999	0.90126	0.90126	-0.07
Mof_C 	C 	0.75284	0.89003	0.89003	0.121
Mof_C 	C 	0.77999	0.40126	0.40126	-0.071
Mof_C 	C 	0.75284	0.39003	0.39003	0.122
Mof_C 	C 	0.27999	0.90126	0.40126	-0.071
Mof_C 	C 	0.25284	0.89003	0.39003	0.122
Mof_C 	C 	0.27999	0.40126	0.90126	-0.071
Mof_C 	C 	0.25284	0.39003	0.89003	0.122
Mof_C 	C 	0.22001	0.90126	0.09874	-0.071
Mof_C 	C 	0.24716	0.89003	0.10997	0.122
Mof_C 	C 	0.22001	0.40126	0.59874	-0.072
Mof_C 	C 	0.24716	0.39003	0.60997	0.122
Mof_C 	C 	0.72001	0.90126	0.59874	-0.071
Mof_C 	C 	0.74716	0.89003	0.60997	0.122
Mof_C 	C 	0.72001	0.40126	0.09874	-0.072
Mof_C 	C 	0.74716	0.39003	0.10997	0.122
Mof_C 	C 	0.77999	0.09874	0.09874	-0.072
Mof_C 	C 	0.75284	0.10997	0.10997	0.122
Mof_C 	C 	0.77999	0.59874	0.59874	-0.071
Mof_C 	C 	0.75284	0.60997	0.60997	0.122
Mof_C 	C 	0.27999	0.09874	0.59874	-0.072
Mof_C 	C 	0.25284	0.10997	0.60997	0.122
Mof_C 	C 	0.27999	0.59874	0.09874	-0.072
Mof_C 	C 	0.25284	0.60997	0.10997	0.122
Mof_C 	C 	0.09874	0.09874	0.77999	-0.072
Mof_C 	C 	0.10997	0.10997	0.75284	0.122
Mof_C 	C 	0.09874	0.59874	0.27999	-0.072
Mof_C 	C 	0.10997	0.60997	0.25284	0.122
Mof_C 	C 	0.59874	0.09874	0.27999	-0.072
Mof_C 	C 	0.60997	0.10997	0.25284	0.122
Mof_C 	C 	0.59874	0.59874	0.77999	-0.071
Mof_C 	C 	0.60997	0.60997	0.75284	0.122
Mof_C 	C 	0.90126	0.09874	0.22001	-0.071
Mof_C 	C 	0.89003	0.10997	0.24716	0.122
Mof_C 	C 	0.90126	0.59874	0.72001	-0.071
Mof_C 	C 	0.89003	0.60997	0.74716	0.122
Mof_C 	C 	0.40126	0.09874	0.72001	-0.072
Mof_C 	C 	0.39003	0.10997	0.74716	0.122
Mof_C 	C 	0.40126	0.59874	0.22001	-0.072
Mof_C 	C 	0.39003	0.60997	0.24716	0.122
Mof_C 	C 	0.90126	0.90126	0.77999	-0.07
Mof_C 	C 	0.89003	0.89003	0.75284	0.121
Mof_C 	C 	0.90126	0.40126	0.27999	-0.071
Mof_C 	C 	0.89003	0.39003	0.25284	0.122
Mof_C 	C 	0.40126	0.90126	0.27999	-0.071
Mof_C 	C 	0.39003	0.89003	0.25284	0.122
Mof_C 	C 	0.40126	0.40126	0.77999	-0.071
Mof_C 	C 	0.39003	0.39003	0.75284	0.122
Mof_C 	C 	0.09874	0.90126	0.22001	-0.071
Mof_C 	C 	0.10997	0.89003	0.24716	0.122
Mof_C 	C 	0.09874	0.40126	0.72001	-0.072
Mof_C 	C 	0.10997	0.39003	0.74716	0.122
Mof_C 	C 	0.59874	0.90126	0.72001	-0.071
Mof_C 	C 	0.60997	0.89003	0.74716	0.122
Mof_C 	C 	0.59874	0.40126	0.22001	-0.072
Mof_C 	C 	0.60997	0.39003	0.24716	0.122
Mof_C 	C 	0.09874	0.22001	0.90126	-0.071
Mof_C 	C 	0.10997	0.24716	0.89003	0.122
Mof_C 	C 	0.09874	0.72001	0.40126	-0.072
Mof_C 	C 	0.10997	0.74716	0.39003	0.122
Mof_C 	C 	0.59874	0.22001	0.40126	-0.072
Mof_C 	C 	0.60997	0.24716	0.39003	0.122
Mof_C 	C 	0.59874	0.72001	0.90126	-0.071
Mof_C 	C 	0.60997	0.74716	0.89003	0.122
Mof_C 	C 	0.09874	0.77999	0.09874	-0.072
Mof_C 	C 	0.10997	0.75284	0.10997	0.122
Mof_C 	C 	0.09874	0.27999	0.59874	-0.072
Mof_C 	C 	0.10997	0.25284	0.60997	0.122
Mof_C 	C 	0.59874	0.77999	0.59874	-0.071
Mof_C 	C 	0.60997	0.75284	0.60997	0.122
Mof_C 	C 	0.59874	0.27999	0.09874	-0.072
Mof_C 	C 	0.60997	0.25284	0.10997	0.122
Mof_C 	C 	0.90126	0.22001	0.09874	-0.071
Mof_C 	C 	0.89003	0.24716	0.10997	0.122
Mof_C 	C 	0.90126	0.72001	0.59874	-0.071
Mof_C 	C 	0.89003	0.74716	0.60997	0.122
Mof_C 	C 	0.40126	0.22001	0.59874	-0.072
Mof_C 	C 	0.39003	0.24716	0.60997	0.122
Mof_C 	C 	0.40126	0.72001	0.09874	-0.072
Mof_C 	C 	0.39003	0.74716	0.10997	0.122
Mof_C 	C 	0.90126	0.77999	0.90126	-0.07
Mof_C 	C 	0.89003	0.75284	0.89003	0.121
Mof_C 	C 	0.90126	0.27999	0.40126	-0.071
Mof_C 	C 	0.89003	0.25284	0.39003	0.122
Mof_C 	C 	0.40126	0.77999	0.40126	-0.071
Mof_C 	C 	0.39003	0.75284	0.39003	0.122
Mof_C 	C 	0.40126	0.27999	0.90126	-0.071
Mof_C 	C 	0.39003	0.25284	0.89003	0.122
Mof_C 	C 	0.2602	0.2175	-0	0.12
Mof_C 	C 	0.2602	0.7175	0.5	0.09
Mof_C 	C 	0.7602	0.2175	0.5	0.09
Mof_C 	C 	0.7602	0.7175	-0	0.12
Mof_C 	C 	0.7398	0.7825	-0	0.12
Mof_C 	C 	0.7398	0.2825	0.5	0.09
Mof_C 	C 	0.2398	0.7825	0.5	0.09
Mof_C 	C 	0.2398	0.2825	-0	0.12
Mof_C 	C 	0.7398	0.2175	-0	0.12
Mof_C 	C 	0.7398	0.7175	0.5	0.09
Mof_C 	C 	0.2398	0.2175	0.5	0.09
Mof_C 	C 	0.2398	0.7175	-0	0.12
Mof_C 	C 	0.2602	0.7825	-0	0.12
Mof_C 	C 	0.2602	0.2825	0.5	0.09
Mof_C 	C 	0.7602	0.7825	0.5	0.09
Mof_C 	C 	0.7602	0.2825	-0	0.12
Mof_C 	C 	-5.16104e-33	0.2602	0.2175	0.12
Mof_C 	C 	2.69019e-33	0.7602	0.7175	0.12
Mof_C 	C 	0.5	0.2602	0.7175	0.09
Mof_C 	C 	0.5	0.7602	0.2175	0.09
Mof_C 	C 	1.09026e-32	0.7398	0.7825	0.12
Mof_C 	C 	1.05921e-33	0.2398	0.2825	0.12
Mof_C 	C 	0.5	0.7398	0.2825	0.09
Mof_C 	C 	0.5	0.2398	0.7825	0.09
Mof_C 	C 	2.80767e-33	0.7398	0.2175	0.12
Mof_C 	C 	1.06589e-32	0.2398	0.7175	0.12
Mof_C 	C 	0.5	0.7398	0.7175	0.09
Mof_C 	C 	0.5	0.2398	0.2175	0.09
Mof_C 	C 	-5.0348e-33	0.2602	0.7825	0.12
Mof_C 	C 	-9.32972e-34	0.7602	0.2825	0.12
Mof_C 	C 	0.5	0.2602	0.2825	0.09
Mof_C 	C 	0.5	0.7602	0.7825	0.09
Mof_C 	C 	0.2175	0	0.2602	0.12
Mof_C 	C 	0.2175	0.5	0.7602	0.09
Mof_C 	C 	0.7175	0	0.7602	0.12
Mof_C 	C 	0.7175	0.5	0.2602	0.09
Mof_C 	C 	0.7825	0	0.7398	0.12
Mof_C 	C 	0.7825	0.5	0.2398	0.09
Mof_C 	C 	0.2825	1.99218e-33	0.2398	0.12
Mof_C 	C 	0.2825	0.5	0.7398	0.09
Mof_C 	C 	0.2175	0	0.7398	0.12
Mof_C 	C 	0.2175	0.5	0.2398	0.09
Mof_C 	C 	0.7175	1.99218e-33	0.2398	0.12
Mof_C 	C 	0.7175	0.5	0.7398	0.09
Mof_C 	C 	0.7825	0	0.2602	0.12
Mof_C 	C 	0.7825	0.5	0.7602	0.09
Mof_C 	C 	0.2825	0	0.7602	0.12
Mof_C 	C 	0.2825	0.5	0.2602	0.09
Mof_C 	C 	0.2175	0.2602	-0	0.12
Mof_C 	C 	0.2175	0.7602	0.5	0.09
Mof_C 	C 	0.7175	0.2602	0.5	0.09
Mof_C 	C 	0.7175	0.7602	-0	0.12
Mof_C 	C 	0.7825	0.7398	-0	0.12
Mof_C 	C 	0.7825	0.2398	0.5	0.09
Mof_C 	C 	0.2825	0.7398	0.5	0.09
Mof_C 	C 	0.2825	0.2398	-0	0.12
Mof_C 	C 	0.2175	0.7398	-0	0.12
Mof_C 	C 	0.2175	0.2398	0.5	0.09
Mof_C 	C 	0.7175	0.7398	0.5	0.09
Mof_C 	C 	0.7175	0.2398	-0	0.12
Mof_C 	C 	0.7825	0.2602	-0	0.12
Mof_C 	C 	0.7825	0.7602	0.5	0.09
Mof_C 	C 	0.2825	0.2602	0.5	0.09
Mof_C 	C 	0.2825	0.7602	-0	0.12
Mof_C 	C 	0.2602	0	0.7825	0.12
Mof_C 	C 	0.2602	0.5	0.2825	0.09
Mof_C 	C 	0.7602	-1.99218e-33	0.2825	0.12
Mof_C 	C 	0.7602	0.5	0.7825	0.09
Mof_C 	C 	0.7398	-1.99218e-33	0.2175	0.12
Mof_C 	C 	0.7398	0.5	0.7175	0.09
Mof_C 	C 	0.2398	7.96871e-33	0.7175	0.12
Mof_C 	C 	0.2398	0.5	0.2175	0.09
Mof_C 	C 	0.7398	0	0.7825	0.12
Mof_C 	C 	0.7398	0.5	0.2825	0.09
Mof_C 	C 	0.2398	-1.99218e-33	0.2825	0.12
Mof_C 	C 	0.2398	0.5	0.7825	0.09
Mof_C 	C 	0.2602	-1.99218e-33	0.2175	0.12
Mof_C 	C 	0.2602	0.5	0.7175	0.09
Mof_C 	C 	0.7602	7.96871e-33	0.7175	0.12
Mof_C 	C 	0.7602	0.5	0.2175	0.09
Mof_C 	C 	2.77381e-33	0.2175	0.7398	0.12
Mof_C 	C 	1.48443e-32	0.7175	0.2398	0.12
Mof_C 	C 	0.5	0.2175	0.2398	0.09
Mof_C 	C 	0.5	0.7175	0.7398	0.09
Mof_C 	C 	-3.00876e-33	0.7825	0.2602	0.12
Mof_C 	C 	-5.11842e-33	0.2825	0.7602	0.12
Mof_C 	C 	0.5	0.7825	0.7602	0.09
Mof_C 	C 	0.5	0.2825	0.2602	0.09
Mof_C 	C 	-5.00094e-33	0.2175	0.2602	0.12
Mof_C 	C 	2.85029e-33	0.7175	0.7602	0.12
Mof_C 	C 	0.5	0.2175	0.7602	0.09
Mof_C 	C 	0.5	0.7175	0.2602	0.09
Mof_C 	C 	1.07425e-32	0.7825	0.7398	0.12
Mof_C 	C 	8.99106e-34	0.2825	0.2398	0.12
Mof_C 	C 	0.5	0.7825	0.2398	0.09
Mof_C 	C 	0.5	0.2825	0.7398	0.09
Mof_C 	C 	0.23915	0.23915	0.0302	0.102
Mof_C 	C 	0.23915	0.73915	0.5302	0.07
Mof_C 	C 	0.73915	0.23915	0.5302	0.07
Mof_C 	C 	0.73915	0.73915	0.0302	0.102
Mof_C 	C 	0.76085	0.76085	0.0302	0.102
Mof_C 	C 	0.76085	0.26085	0.5302	0.07
Mof_C 	C 	0.26085	0.76085	0.5302	0.07
Mof_C 	C 	0.26085	0.26085	0.0302	0.102
Mof_C 	C 	0.76085	0.23915	0.9698	0.097
Mof_C 	C 	0.76085	0.73915	0.4698	0.07
Mof_C 	C 	0.26085	0.23915	0.4698	0.07
Mof_C 	C 	0.26085	0.73915	0.9698	0.097
Mof_C 	C 	0.23915	0.76085	0.9698	0.097
Mof_C 	C 	0.23915	0.26085	0.4698	0.07
Mof_C 	C 	0.73915	0.76085	0.4698	0.07
Mof_C 	C 	0.73915	0.26085	0.9698	0.097
Mof_C 	C 	0.0302	0.23915	0.23915	0.102
Mof_C 	C 	0.0302	0.73915	0.73915	0.102
Mof_C 	C 	0.5302	0.23915	0.73915	0.07
Mof_C 	C 	0.5302	0.73915	0.23915	0.07
Mof_C 	C 	0.0302	0.76085	0.76085	0.102
Mof_C 	C 	0.0302	0.26085	0.26085	0.102
Mof_C 	C 	0.5302	0.76085	0.26085	0.07
Mof_C 	C 	0.5302	0.26085	0.76085	0.07
Mof_C 	C 	0.9698	0.76085	0.23915	0.097
Mof_C 	C 	0.9698	0.26085	0.73915	0.097
Mof_C 	C 	0.4698	0.76085	0.73915	0.07
Mof_C 	C 	0.4698	0.26085	0.23915	0.07
Mof_C 	C 	0.9698	0.23915	0.76085	0.097
Mof_C 	C 	0.9698	0.73915	0.26085	0.097
Mof_C 	C 	0.4698	0.23915	0.26085	0.07
Mof_C 	C 	0.4698	0.73915	0.76085	0.07
Mof_C 	C 	0.23915	0.0302	0.23915	0.102
Mof_C 	C 	0.23915	0.5302	0.73915	0.07
Mof_C 	C 	0.73915	0.0302	0.73915	0.102
Mof_C 	C 	0.73915	0.5302	0.23915	0.07
Mof_C 	C 	0.76085	0.0302	0.76085	0.102
Mof_C 	C 	0.76085	0.5302	0.26085	0.07
Mof_C 	C 	0.26085	0.0302	0.26085	0.102
Mof_C 	C 	0.26085	0.5302	0.76085	0.07
Mof_C 	C 	0.23915	0.9698	0.76085	0.097
Mof_C 	C 	0.23915	0.4698	0.26085	0.07
Mof_C 	C 	0.73915	0.9698	0.26085	0.097
Mof_C 	C 	0.73915	0.4698	0.76085	0.07
Mof_C 	C 	0.76085	0.9698	0.23915	0.097
Mof_C 	C 	0.76085	0.4698	0.73915	0.07
Mof_C 	C 	0.26085	0.9698	0.73915	0.097
Mof_C 	C 	0.26085	0.4698	0.23915	0.07
Mof_C 	C 	0.23915	0.23915	0.9698	0.097
Mof_C 	C 	0.23915	0.73915	0.4698	0.07
Mof_C 	C 	0.73915	0.23915	0.4698	0.07
Mof_C 	C 	0.73915	0.73915	0.9698	0.097
Mof_C 	C 	0.76085	0.76085	0.9698	0.097
Mof_C 	C 	0.76085	0.26085	0.4698	0.07
Mof_C 	C 	0.26085	0.76085	0.4698	0.07
Mof_C 	C 	0.26085	0.26085	0.9698	0.097
Mof_C 	C 	0.23915	0.76085	0.0302	0.102
Mof_C 	C 	0.23915	0.26085	0.5302	0.07
Mof_C 	C 	0.73915	0.76085	0.5302	0.07
Mof_C 	C 	0.73915	0.26085	0.0302	0.102
Mof_C 	C 	0.76085	0.23915	0.0302	0.102
Mof_C 	C 	0.76085	0.73915	0.5302	0.07
Mof_C 	C 	0.26085	0.23915	0.5302	0.07
Mof_C 	C 	0.26085	0.73915	0.0302	0.102
Mof_C 	C 	0.23915	0.0302	0.76085	0.102
Mof_C 	C 	0.23915	0.5302	0.26085	0.07
Mof_C 	C 	0.73915	0.0302	0.26085	0.102
Mof_C 	C 	0.73915	0.5302	0.76085	0.07
Mof_C 	C 	0.76085	0.0302	0.23915	0.102
Mof_C 	C 	0.76085	0.5302	0.73915	0.07
Mof_C 	C 	0.26085	0.0302	0.73915	0.102
Mof_C 	C 	0.26085	0.5302	0.23915	0.07
Mof_C 	C 	0.76085	0.9698	0.76085	0.097
Mof_C 	C 	0.76085	0.4698	0.26085	0.07
Mof_C 	C 	0.26085	0.9698	0.26085	0.097
Mof_C 	C 	0.26085	0.4698	0.76085	0.07
Mof_C 	C 	0.23915	0.9698	0.23915	0.097
Mof_C 	C 	0.23915	0.4698	0.73915	0.07
Mof_C 	C 	0.73915	0.9698	0.73915	0.097
Mof_C 	C 	0.73915	0.4698	0.23915	0.07
Mof_C 	C 	0.0302	0.23915	0.76085	0.102
Mof_C 	C 	0.0302	0.73915	0.26085	0.102
Mof_C 	C 	0.5302	0.23915	0.26085	0.07
Mof_C 	C 	0.5302	0.73915	0.76085	0.07
Mof_C 	C 	0.0302	0.76085	0.23915	0.102
Mof_C 	C 	0.0302	0.26085	0.73915	0.102
Mof_C 	C 	0.5302	0.76085	0.73915	0.07
Mof_C 	C 	0.5302	0.26085	0.23915	0.07
Mof_C 	C 	0.9698	0.23915	0.23915	0.097
Mof_C 	C 	0.9698	0.73915	0.73915	0.097
Mof_C 	C 	0.4698	0.23915	0.73915	0.07
Mof_C 	C 	0.4698	0.73915	0.23915	0.07
Mof_C 	C 	0.9698	0.76085	0.76085	0.097
Mof_C 	C 	0.9698	0.26085	0.26085	0.097
Mof_C 	C 	0.4698	0.76085	0.26085	0.07
Mof_C 	C 	0.4698	0.26085	0.76085	0.07
_end
