data_functionalizedCrystal
_audit_creation_method	'EQeq! by Chris Wilmer'
_symmetry_space_group_name_H-M	'P1'
_symmetry_Int_Tables_number	1
_symmetry_cell_setting	triclinic
loop_
_symmetry_equiv_pos_as_xyz
  x,y,z
_cell_length_a	16.389
_cell_length_b	12.0113
_cell_length_c	12.2966
_cell_angle_alpha	90
_cell_angle_beta	90
_cell_angle_gamma	90
loop_
_atom_site_label
_atom_site_type_symbol
_atom_site_fract_x
_atom_site_fract_y
_atom_site_fract_z
_atom_site_charge
Mof_Nd	Nd	0.97015	0.16173	0.28105	2.752
Mof_Br	Br	0.97877	0.2002	0.50922	-0.367
Mof_Cl	Cl	0.9802	0.2004	0.5076	-0.082
Mof_S 	S 	0.78958	0.52046	0.52027	0.127
Mof_O 	O 	0.91364	0.3539	0.30198	-0.674
Mof_O 	O 	0.92372	0.72878	0.21078	-0.62
Mof_C 	C 	0.65063	0.5026	0.6418	0.444
Mof_O 	O 	0.66953	0.59859	0.67836	-0.517
Mof_O 	O 	0.58177	0.46058	0.6611	-0.698
Mof_O 	O 	0.91532	0.52686	0.35943	-0.475
Mof_C 	C 	0.87072	0.684	0.1514	0.505
Mof_O 	O 	0.87273	0.58251	0.1266	-0.496
Mof_C 	C 	0.70877	0.4455	0.57	-0.146
Mof_C 	C 	0.81949	0.4103	0.4409	-0.139
Mof_C 	C 	0.88749	0.4298	0.365	0.449
Mof_C 	C 	0.7063	0.3408	0.528	0.024
Mof_H 	H 	0.666	0.2872	0.5465	0.023
Mof_C 	C 	0.80291	0.7508	0.1081	-0.158
Mof_S 	S 	0.73239	0.68505	0.02505	0.127
Mof_O 	O 	0.55468	0.88528	0.94652	-0.531
Mof_O 	O 	0.59481	0.7196	0.88225	-0.578
Mof_C 	C 	0.60267	0.8034	0.9413	0.521
Mof_C 	C 	0.7117	0.8917	0.0671	0.008
Mof_H 	H 	0.6899	0.965	0.069	0.064
Mof_C 	C 	0.67614	0.8055	0.0121	-0.139
Mof_C 	C 	0.77046	0.3206	0.4539	0.011
Mof_H 	H 	0.7783	0.2518	0.4173	0.032
Mof_C 	C 	0.7841	0.8601	0.1206	0.048
Mof_H 	H 	0.8166	0.9104	0.1614	0.033
Mof_Nd	Nd	0.02985	0.83828	0.28105	2.473
Mof_Br	Br	0.02123	0.7998	0.50922	-0.388
Mof_Cl	Cl	0.0198	0.7996	0.5076	-0.109
Mof_S 	S 	0.21042	0.47954	0.52027	0.098
Mof_O 	O 	0.08636	0.6461	0.30198	-0.676
Mof_O 	O 	0.07628	0.27122	0.21078	-0.726
Mof_C 	C 	0.34937	0.4974	0.6418	0.444
Mof_O 	O 	0.33047	0.40141	0.67836	-0.523
Mof_O 	O 	0.41823	0.53942	0.6611	-0.699
Mof_O 	O 	0.08468	0.47314	0.35943	-0.523
Mof_C 	C 	0.12928	0.316	0.1514	0.527
Mof_O 	O 	0.12727	0.41749	0.1266	-0.53
Mof_C 	C 	0.29123	0.5545	0.57	-0.144
Mof_C 	C 	0.18051	0.5897	0.4409	-0.136
Mof_C 	C 	0.11251	0.5702	0.365	0.441
Mof_C 	C 	0.2937	0.6592	0.528	0.025
Mof_H 	H 	0.334	0.7128	0.5465	0.022
Mof_C 	C 	0.19709	0.2492	0.1081	-0.186
Mof_S 	S 	0.26761	0.31495	0.02505	0.118
Mof_O 	O 	0.44532	0.11472	0.94652	-0.567
Mof_O 	O 	0.40519	0.2804	0.88225	-0.582
Mof_C 	C 	0.39733	0.1966	0.9413	0.513
Mof_C 	C 	0.2883	0.1083	0.0671	-0.009
Mof_H 	H 	0.3101	0.035	0.069	0.038
Mof_C 	C 	0.32386	0.1945	0.0121	-0.142
Mof_C 	C 	0.22954	0.6794	0.4539	0.007
Mof_H 	H 	0.2217	0.7482	0.4173	0.038
Mof_C 	C 	0.2159	0.1399	0.1206	0.05
Mof_H 	H 	0.1834	0.0896	0.1614	-0.002
Mof_Nd	Nd	0.52985	0.66173	0.71895	2.607
Mof_Br	Br	0.52123	0.7002	0.49078	-0.376
Mof_Cl	Cl	0.5198	0.7004	0.4924	-0.092
Mof_S 	S 	0.71042	0.02046	0.47973	0.008
Mof_O 	O 	0.58636	0.8539	0.69802	-0.686
Mof_O 	O 	0.57628	0.22878	0.78922	-0.684
Mof_C 	C 	0.84937	0.0026	0.3582	0.281
Mof_O 	O 	0.83047	0.09859	0.32164	-0.5
Mof_O 	O 	0.91823	0.96058	0.3389	-0.575
Mof_O 	O 	0.58468	0.02686	0.64057	-0.556
Mof_C 	C 	0.62928	0.184	0.8486	0.521
Mof_O 	O 	0.62727	0.08251	0.8734	-0.544
Mof_C 	C 	0.79123	0.9455	0.43	0.007
Mof_C 	C 	0.68051	0.9103	0.5591	-0.107
Mof_C 	C 	0.61251	0.9298	0.635	0.503
Mof_C 	C 	0.7937	0.8408	0.472	-0.045
Mof_H 	H 	0.834	0.7872	0.4535	0.062
Mof_C 	C 	0.69709	0.2508	0.8919	-0.177
Mof_S 	S 	0.76761	0.18505	0.97495	0.106
Mof_O 	O 	0.94532	0.38528	0.05348	-0.513
Mof_O 	O 	0.90519	0.2196	0.11775	-0.581
Mof_C 	C 	0.89733	0.3034	0.0587	0.521
Mof_C 	C 	0.7883	0.3917	0.9329	-0.005
Mof_H 	H 	0.8101	0.465	0.931	0.056
Mof_C 	C 	0.82386	0.3055	0.9879	-0.138
Mof_C 	C 	0.72954	0.8206	0.5461	0.041
Mof_H 	H 	0.7217	0.7518	0.5827	0.029
Mof_C 	C 	0.7159	0.3601	0.8794	0.053
Mof_H 	H 	0.6834	0.4104	0.8386	0.009
Mof_Nd	Nd	0.47015	0.33827	0.71895	2.594
Mof_Br	Br	0.47877	0.2998	0.49078	-0.377
Mof_Cl	Cl	0.4802	0.2996	0.4924	-0.096
Mof_S 	S 	0.28958	0.97954	0.47973	0.193
Mof_O 	O 	0.41364	0.1461	0.69802	-0.674
Mof_O 	O 	0.42372	0.77122	0.78922	-0.679
Mof_C 	C 	0.15063	0.9974	0.3582	0.563
Mof_O 	O 	0.16953	0.90141	0.32164	-0.531
Mof_O 	O 	0.08177	0.03942	0.3389	-0.786
Mof_O 	O 	0.41532	0.97314	0.64057	-0.461
Mof_C 	C 	0.37072	0.816	0.8486	0.515
Mof_O 	O 	0.37273	0.91749	0.8734	-0.502
Mof_C 	C 	0.20877	0.0545	0.43	-0.261
Mof_C 	C 	0.31949	0.0897	0.5591	-0.161
Mof_C 	C 	0.38749	0.0702	0.635	0.392
Mof_C 	C 	0.2063	0.1592	0.472	0.077
Mof_H 	H 	0.166	0.2128	0.4535	-0.009
Mof_C 	C 	0.30291	0.7492	0.8919	-0.175
Mof_S 	S 	0.23239	0.81495	0.97495	0.138
Mof_O 	O 	0.05468	0.61472	0.05348	-0.565
Mof_O 	O 	0.09481	0.7804	0.11775	-0.566
Mof_C 	C 	0.10267	0.6966	0.0587	0.51
Mof_C 	C 	0.2117	0.6083	0.9329	-0.003
Mof_H 	H 	0.1899	0.535	0.931	0.044
Mof_C 	C 	0.17614	0.6945	0.9879	-0.143
Mof_C 	C 	0.27046	0.1794	0.5461	-0.017
Mof_H 	H 	0.2783	0.2482	0.5827	0.041
Mof_C 	C 	0.2841	0.6399	0.8794	0.048
Mof_H 	H 	0.3166	0.5896	0.8386	0.008
Mof_Nd	Nd	5.51042e-34	0.5	0.19588	2.375
Mof_Nd	Nd	0.5	-1.04285e-32	0.80412	2.441
Mof_Cl	Cl	3.3049e-34	1.30357e-33	0.11748	-0.82
Mof_Cl	Cl	0.5	0.5	0.88252	-0.738
_end
