# CIF file generated by openbabel 2.4.1, see http://openbabel.sf.net
data_I
_chemical_name_common 'image0'
_cell_length_a 13.532
_cell_length_b 13.532
_cell_length_c 8.7172
_cell_angle_alpha 90
_cell_angle_beta 90
_cell_angle_gamma 120
_space_group_name_H-M_alt 'P 1'
_space_group_name_Hall 'P 1'
loop_
    _symmetry_equiv_pos_as_xyz
    x,y,z
loop_
    _atom_site_label
    _atom_site_type_symbol
    _atom_site_fract_x
    _atom_site_fract_y
    _atom_site_fract_z
    _atom_site_occupancy
    W1      W    0.66667   0.33333   0.56159   1.000
    W2      W    0.33333   0.66667   0.06159   1.000
    Cu1     Cu   0.88116   0.44058   0.69251   1.000
    N1      N    0.97570   0.48785   0.49160   1.000
    C1      C    0.02690   0.51345   0.37640   1.000
    Cu2     Cu   0.55942   0.44058   0.69251   1.000
    N2      N    0.51215   0.48785   0.49160   1.000
    C2      C    0.48655   0.51345   0.37640   1.000
    Cu3     Cu   0.55942   0.11884   0.69251   1.000
    N3      N    0.51215   0.02430   0.49160   1.000
    C3      C    0.48655   0.97310   0.37640   1.000
    Cu4     Cu   0.11884   0.55942   0.19251   1.000
    N4      N    0.02430   0.51215   0.99160   1.000
    C4      C    0.97310   0.48655   0.87640   1.000
    Cu5     Cu   0.44058   0.55942   0.19251   1.000
    N5      N    0.48785   0.51215   0.99160   1.000
    C5      C    0.51345   0.48655   0.87640   1.000
    Cu6     Cu   0.44058   0.88116   0.19251   1.000
    N6      N    0.48785   0.97570   0.99160   1.000
    C6      C    0.51345   0.02690   0.87640   1.000
    S1      S    0.75669   0.51337   0.65260   1.000
    S2      S    0.48663   0.24332   0.65260   1.000
    S3      S    0.75669   0.24332   0.65260   1.000
    S4      S    0.24332   0.48663   0.15260   1.000
    S5      S    0.51337   0.75668   0.15260   1.000
    S6      S    0.24332   0.75669   0.15260   1.000
    H1      H    0.49350   0.80620   0.63770   1.000
    C7      C    0.71110   0.76530   0.59800   1.000
    H2      H    0.71590   0.76390   0.48610   1.000
    H3      H    0.66870   0.68700   0.63710   1.000
    H4      H    0.78820   0.80380   0.64170   1.000
    H5      H    0.61660   0.74810   0.84630   1.000
    H6      H    0.61240   0.86430   0.84630   1.000
    H7      H    0.49350   0.68730   0.63770   1.000
    C8      C    0.71110   0.94580   0.59800   1.000
    H8      H    0.71590   0.95200   0.48610   1.000
    H9      H    0.66870   0.98170   0.63710   1.000
    H10     H    0.78820   0.98440   0.64170   1.000
    H11     H    0.61660   0.86850   0.84630   1.000
    H12     H    0.61240   0.74810   0.84630   1.000
    N7      N    0.65280   0.82640   0.64200   1.000
    C9      C    0.53050   0.76525   0.59740   1.000
    H13     H    0.52410   0.76205   0.48540   1.000
    C10     C    0.65370   0.82685   0.80840   1.000
    H14     H    0.73270   0.86635   0.84520   1.000
    H15     H    0.19380   0.68730   0.63770   1.000
    C11     C    0.23470   0.94580   0.59800   1.000
    H16     H    0.23610   0.95200   0.48610   1.000
    H17     H    0.31300   0.98170   0.63710   1.000
    H18     H    0.19620   0.98440   0.64170   1.000
    H19     H    0.25190   0.86850   0.84630   1.000
    H20     H    0.13570   0.74810   0.84630   1.000
    H21     H    0.31270   0.80620   0.63770   1.000
    C12     C    0.05420   0.76530   0.59800   1.000
    H22     H    0.04800   0.76390   0.48610   1.000
    H23     H    0.01830   0.68700   0.63710   1.000
    H24     H    0.01560   0.80380   0.64170   1.000
    H25     H    0.13150   0.74810   0.84630   1.000
    H26     H    0.25190   0.86430   0.84630   1.000
    N8      N    0.17360   0.82640   0.64200   1.000
    C13     C    0.23475   0.76525   0.59740   1.000
    H27     H    0.23795   0.76205   0.48540   1.000
    C14     C    0.17315   0.82685   0.80840   1.000
    H28     H    0.13365   0.86635   0.84520   1.000
    H29     H    0.31270   0.50650   0.63770   1.000
    C15     C    0.05420   0.28890   0.59800   1.000
    H30     H    0.04800   0.28410   0.48610   1.000
    H31     H    0.01830   0.33130   0.63710   1.000
    H32     H    0.01560   0.21180   0.64170   1.000
    H33     H    0.13150   0.38340   0.84630   1.000
    H34     H    0.25190   0.38760   0.84630   1.000
    H35     H    0.19380   0.50650   0.63770   1.000
    C16     C    0.23470   0.28890   0.59800   1.000
    H36     H    0.23610   0.28410   0.48610   1.000
    H37     H    0.31300   0.33130   0.63710   1.000
    H38     H    0.19620   0.21180   0.64170   1.000
    H39     H    0.25190   0.38340   0.84630   1.000
    H40     H    0.13570   0.38760   0.84630   1.000
    N9      N    0.17360   0.34720   0.64200   1.000
    C17     C    0.23475   0.46950   0.59740   1.000
    H41     H    0.23795   0.47590   0.48540   1.000
    C18     C    0.17315   0.34630   0.80840   1.000
    H42     H    0.13365   0.26730   0.84520   1.000
    H43     H    0.50650   0.19380   0.13770   1.000
    C19     C    0.28890   0.23470   0.09800   1.000
    H44     H    0.28410   0.23610   0.98610   1.000
    H45     H    0.33130   0.31300   0.13710   1.000
    H46     H    0.21180   0.19620   0.14170   1.000
    H47     H    0.38340   0.25190   0.34630   1.000
    H48     H    0.38760   0.13570   0.34630   1.000
    H49     H    0.50650   0.31270   0.13770   1.000
    C20     C    0.28890   0.05420   0.09800   1.000
    H50     H    0.28410   0.04800   0.98610   1.000
    H51     H    0.33130   0.01830   0.13710   1.000
    H52     H    0.21180   0.01560   0.14170   1.000
    H53     H    0.38340   0.13150   0.34630   1.000
    H54     H    0.38760   0.25190   0.34630   1.000
    N10     N    0.34720   0.17360   0.14200   1.000
    C21     C    0.46950   0.23475   0.09740   1.000
    H55     H    0.47590   0.23795   0.98540   1.000
    C22     C    0.34630   0.17315   0.30840   1.000
    H56     H    0.26730   0.13365   0.34520   1.000
    H57     H    0.80620   0.31270   0.13770   1.000
    C23     C    0.76530   0.05420   0.09800   1.000
    H58     H    0.76390   0.04800   0.98610   1.000
    H59     H    0.68700   0.01830   0.13710   1.000
    H60     H    0.80380   0.01560   0.14170   1.000
    H61     H    0.74810   0.13150   0.34630   1.000
    H62     H    0.86430   0.25190   0.34630   1.000
    H63     H    0.68730   0.19380   0.13770   1.000
    C24     C    0.94580   0.23470   0.09800   1.000
    H64     H    0.95200   0.23610   0.98610   1.000
    H65     H    0.98170   0.31300   0.13710   1.000
    H66     H    0.98440   0.19620   0.14170   1.000
    H67     H    0.86850   0.25190   0.34630   1.000
    H68     H    0.74810   0.13570   0.34630   1.000
    N11     N    0.82640   0.17360   0.14200   1.000
    C25     C    0.76525   0.23475   0.09740   1.000
    H69     H    0.76205   0.23795   0.98540   1.000
    C26     C    0.82685   0.17315   0.30840   1.000
    H70     H    0.86635   0.13365   0.34520   1.000
    H71     H    0.68730   0.49350   0.13770   1.000
    C27     C    0.94580   0.71110   0.09800   1.000
    H72     H    0.95200   0.71590   0.98610   1.000
    H73     H    0.98170   0.66870   0.13710   1.000
    H74     H    0.98440   0.78820   0.14170   1.000
    H75     H    0.86850   0.61660   0.34630   1.000
    H76     H    0.74810   0.61240   0.34630   1.000
    H77     H    0.80620   0.49350   0.13770   1.000
    C28     C    0.76530   0.71110   0.09800   1.000
    H78     H    0.76390   0.71590   0.98610   1.000
    H79     H    0.68700   0.66870   0.13710   1.000
    H80     H    0.80380   0.78820   0.14170   1.000
    H81     H    0.74810   0.61660   0.34630   1.000
    H82     H    0.86430   0.61240   0.34630   1.000
    N12     N    0.82640   0.65280   0.14200   1.000
    C29     C    0.76525   0.53050   0.09740   1.000
    H83     H    0.76205   0.52410   0.98540   1.000
    C30     C    0.82685   0.65370   0.30840   1.000
    H84     H    0.86635   0.73270   0.34520   1.000
