# CIF file generated by openbabel 2.4.1, see http://openbabel.sf.net
data_I
_chemical_name_common 'UVEXAV_clean'
_cell_length_a 7.2335
_cell_length_b 7.6273
_cell_length_c 11.2437
_cell_angle_alpha 107.444
_cell_angle_beta 106.267
_cell_angle_gamma 97.0373
_space_group_name_H-M_alt 'P 1'
_space_group_name_Hall 'P 1'
loop_
    _symmetry_equiv_pos_as_xyz
    x,y,z
loop_
    _atom_site_label
    _atom_site_type_symbol
    _atom_site_fract_x
    _atom_site_fract_y
    _atom_site_fract_z
    _atom_site_occupancy
    Ga1     Ga   0.29473   0.29473   0.58946   1.000
    Ga2     Ga   0.70527   0.70527   0.41054   1.000
    Ga3     Ga   0.00000   0.50000   0.50000   1.000
    Ga4     Ga   0.50000   0.00000   0.50000   1.000
    H1      H    0.99276   0.30902   0.64852   1.000
    H2      H    0.14200   0.97300   0.47800   1.000
    H3      H    0.65576   0.33950   0.64852   1.000
    H4      H    0.33600   0.50500   0.47800   1.000
    H5      H    0.00724   0.69098   0.35148   1.000
    H6      H    0.85800   0.02700   0.52200   1.000
    H7      H    0.34424   0.66050   0.35148   1.000
    H8      H    0.66400   0.49500   0.52200   1.000
    H9      H    0.54900   0.29800   0.00000   1.000
    H10     H    0.45100   0.70200   0.00000   1.000
    C1      C    0.42386   0.06756   0.74912   1.000
    C2      C    0.45103   0.03383   0.87666   1.000
    C3      C    0.32526   0.68156   0.74912   1.000
    C4      C    0.42563   0.84283   0.87666   1.000
    C5      C    0.57614   0.93244   0.25088   1.000
    C6      C    0.54897   0.96617   0.12334   1.000
    C7      C    0.67474   0.31844   0.25088   1.000
    C8      C    0.57437   0.15717   0.12334   1.000
    C9      C    0.52610   0.18000   0.00000   1.000
    C10     C    0.47390   0.82000   0.00000   1.000
    O1      O    0.02459   0.30595   0.58012   1.000
    O2      O    0.23272   0.04307   0.46386   1.000
    O3      O    0.33174   0.19528   0.73744   1.000
    O4      O    0.50260   0.97227   0.66956   1.000
    O5      O    0.55553   0.27417   0.58012   1.000
    O6      O    0.23114   0.42079   0.46386   1.000
    O7      O    0.40570   0.54216   0.73744   1.000
    O8      O    0.16696   0.69729   0.66956   1.000
    O9      O    0.97541   0.69405   0.41988   1.000
    O10     O    0.76728   0.95693   0.53614   1.000
    O11     O    0.66826   0.80472   0.26256   1.000
    O12     O    0.49740   0.02773   0.33044   1.000
    O13     O    0.44447   0.72583   0.41988   1.000
    O14     O    0.76886   0.57921   0.53614   1.000
    O15     O    0.59430   0.45784   0.26256   1.000
    O16     O    0.83304   0.30271   0.33044   1.000
