data_functionalizedCrystal
_audit_creation_method	'EQeq! by Chris Wilmer'
_symmetry_space_group_name_H-M	'P1'
_symmetry_Int_Tables_number	1
_symmetry_cell_setting	triclinic
loop_
_symmetry_equiv_pos_as_xyz
  x,y,z
_cell_length_a	17.298
_cell_length_b	13.402
_cell_length_c	18.056
_cell_angle_alpha	90
_cell_angle_beta	96.196
_cell_angle_gamma	90
loop_
_atom_site_label
_atom_site_type_symbol
_atom_site_fract_x
_atom_site_fract_y
_atom_site_fract_z
_atom_site_charge
Mof_Ni	Ni	0.04044	0.30594	0.16562	1.108
Mof_C 	C 	0.8319	0.967	0.0817	-0.052
Mof_C 	C 	0.761	0.9454	0.1071	0.003
Mof_H 	H 	0.7302	0.8946	0.0847	0.04
Mof_C 	C 	0.7349	0.9994	0.1663	-0.106
Mof_C 	C 	0.7789	0.0782	0.1978	0.047
Mof_H 	H 	0.7621	0.1141	0.2371	0.034
Mof_C 	C 	0.8493	0.1032	0.1696	-0.123
Mof_C 	C 	0.874	0.0486	0.113	0.017
Mof_H 	H 	0.9203	0.0661	0.0946	0.028
Mof_C 	C 	0.8598	0.9054	0.0199	0.022
Mof_C 	C 	0.80947	0.8665	0.9618	-0.034
Mof_H 	H 	0.7567	0.8817	0.9582	0.045
Mof_C 	C 	0.838	0.8049	0.9091	-0.034
Mof_H 	H 	0.8044	0.7789	0.8703	0.05
Mof_N 	N 	0.9168	0.7823	0.9145	-0.066
Mof_C 	C 	0.96711	0.8212	0.9726	-0.133
Mof_H 	H 	0.0198	0.806	0.9762	0.091
Mof_C 	C 	0.9386	0.8827	0.0253	0.015
Mof_H 	H 	0.9722	0.9088	0.0642	0.009
Mof_C 	C 	0.6585	0.9683	0.1918	0.356
Mof_C 	C 	0.9004	0.1872	0.2028	0.405
Mof_O 	O 	0.6218	0.9056	0.14971	-0.444
Mof_O 	O 	0.63674	0.0024	0.2499	-0.31
Mof_O 	O 	0.95715	0.2049	0.1676	-0.481
Mof_O 	O 	0.88291	0.2314	0.2586	-0.429
Mof_H 	H 	0.0288	0.4467	0.2418	0.264
Mof_C 	C 	0.8678	0.8998	0.0338	0.056
Mof_C 	C 	0.8697	0.7965	0.0409	-0.14
Mof_H 	H 	0.8548	0.7666	0.0836	0.077
Mof_C 	C 	0.8939	0.738	0.9841	0.069
Mof_H 	H 	0.8951	0.6689	0.9889	-0.011
Mof_N 	N 	0.9162	0.7828	0.9203	-0.107
Mof_C 	C 	0.9143	0.8861	0.9132	0.094
Mof_H 	H 	0.9292	0.916	0.8705	-0.011
Mof_C 	C 	0.8901	0.9446	0.97	-0.144
Mof_H 	H 	0.8888	0.0137	0.9652	0.074
Mof_H 	H 	0.9785	0.4104	0.2891	0.099
Mof_Ni	Ni	0.54044	0.80594	0.16562	1.099
Mof_C 	C 	0.3319	0.467	0.0817	-0.045
Mof_C 	C 	0.261	0.4454	0.1071	0.001
Mof_H 	H 	0.2302	0.3946	0.0847	0.043
Mof_C 	C 	0.2349	0.4994	0.1663	-0.098
Mof_C 	C 	0.2789	0.5782	0.1978	0.04
Mof_H 	H 	0.2621	0.6141	0.2371	0.039
Mof_C 	C 	0.3493	0.6032	0.1696	-0.113
Mof_C 	C 	0.374	0.5486	0.113	0.01
Mof_H 	H 	0.4203	0.5661	0.0946	0.037
Mof_C 	C 	0.3598	0.4054	0.0199	0.033
Mof_C 	C 	0.30947	0.3665	0.9618	-0.071
Mof_H 	H 	0.2567	0.3817	0.9582	0.059
Mof_C 	C 	0.338	0.3049	0.9091	0.008
Mof_H 	H 	0.3044	0.2789	0.8703	0.036
Mof_N 	N 	0.4168	0.2823	0.9145	-0.074
Mof_C 	C 	0.46711	0.3212	0.9726	0.013
Mof_H 	H 	0.5198	0.306	0.9762	0.011
Mof_C 	C 	0.4386	0.3827	0.0253	-0.074
Mof_H 	H 	0.4722	0.4088	0.0642	0.054
Mof_C 	C 	0.1585	0.4683	0.1918	0.356
Mof_C 	C 	0.4004	0.6872	0.2028	0.402
Mof_O 	O 	0.1218	0.4056	0.14971	-0.437
Mof_O 	O 	0.13674	0.5024	0.2499	-0.302
Mof_O 	O 	0.45715	0.7049	0.1676	-0.458
Mof_O 	O 	0.38291	0.7314	0.2586	-0.42
Mof_H 	H 	0.5288	0.9467	0.2418	0.266
Mof_C 	C 	0.3678	0.3998	0.0338	0.051
Mof_C 	C 	0.3697	0.2965	0.0409	-0.095
Mof_H 	H 	0.3548	0.2666	0.0836	0.065
Mof_C 	C 	0.3939	0.238	0.9841	0.018
Mof_H 	H 	0.3951	0.1689	0.9889	0.012
Mof_N 	N 	0.4162	0.2828	0.9203	-0.107
Mof_C 	C 	0.4143	0.3861	0.9132	0.029
Mof_H 	H 	0.4292	0.416	0.8705	0.023
Mof_C 	C 	0.3901	0.4446	0.97	-0.084
Mof_H 	H 	0.3888	0.5137	0.9652	0.061
Mof_H 	H 	0.4785	0.9104	0.2891	0.146
Mof_Ni	Ni	0.95956	0.30594	0.33438	1.087
Mof_C 	C 	0.1681	0.967	0.4183	-0.046
Mof_C 	C 	0.239	0.9454	0.3929	0.003
Mof_H 	H 	0.2698	0.8946	0.4153	0.042
Mof_C 	C 	0.2651	0.9994	0.3337	-0.101
Mof_C 	C 	0.2211	0.0782	0.3022	0.041
Mof_H 	H 	0.2379	0.1141	0.2629	0.038
Mof_C 	C 	0.1507	0.1032	0.3304	-0.11
Mof_C 	C 	0.126	0.0486	0.387	0.01
Mof_H 	H 	0.0797	0.0661	0.4054	0.044
Mof_C 	C 	0.1402	0.9054	0.4801	0.045
Mof_C 	C 	0.19053	0.8665	0.5382	-0.111
Mof_H 	H 	0.2433	0.8817	0.5418	0.071
Mof_C 	C 	0.162	0.8049	0.5909	0.052
Mof_H 	H 	0.1956	0.7789	0.6297	0.02
Mof_N 	N 	0.0832	0.7823	0.5855	-0.081
Mof_C 	C 	0.03289	0.8212	0.5274	0.157
Mof_H 	H 	0.9802	0.806	0.5238	-0.067
Mof_C 	C 	0.0614	0.8827	0.4747	-0.163
Mof_H 	H 	0.0278	0.9088	0.4358	0.099
Mof_C 	C 	0.3415	0.9683	0.3082	0.356
Mof_C 	C 	0.0996	0.1872	0.2972	0.4
Mof_O 	O 	0.3782	0.9056	0.35029	-0.443
Mof_O 	O 	0.36326	0.0024	0.2501	-0.309
Mof_O 	O 	0.04285	0.2049	0.3324	-0.438
Mof_O 	O 	0.11709	0.2314	0.2414	-0.416
Mof_H 	H 	0.9712	0.4467	0.2582	0.227
Mof_C 	C 	0.1322	0.8998	0.4662	0.047
Mof_C 	C 	0.1303	0.7965	0.4591	-0.049
Mof_H 	H 	0.1452	0.7666	0.4164	0.052
Mof_C 	C 	0.1061	0.738	0.5159	-0.034
Mof_H 	H 	0.1049	0.6689	0.5111	0.036
Mof_N 	N 	0.0838	0.7828	0.5797	-0.106
Mof_C 	C 	0.0857	0.8861	0.5868	-0.038
Mof_H 	H 	0.0708	0.916	0.6295	0.058
Mof_C 	C 	0.1099	0.9446	0.53	-0.023
Mof_H 	H 	0.1112	0.0137	0.5348	0.043
Mof_H 	H 	0.0215	0.4104	0.2109	0.114
Mof_Ni	Ni	0.45956	0.80594	0.33438	1.099
Mof_C 	C 	0.6681	0.467	0.4183	-0.047
Mof_C 	C 	0.739	0.4454	0.3929	0.002
Mof_H 	H 	0.7698	0.3946	0.4153	0.041
Mof_C 	C 	0.7651	0.4994	0.3337	-0.104
Mof_C 	C 	0.7211	0.5782	0.3022	0.042
Mof_H 	H 	0.7379	0.6141	0.2629	0.035
Mof_C 	C 	0.6507	0.6032	0.3304	-0.116
Mof_C 	C 	0.626	0.5486	0.387	0.011
Mof_H 	H 	0.5797	0.5661	0.4054	0.036
Mof_C 	C 	0.6402	0.4054	0.4801	0.032
Mof_C 	C 	0.69053	0.3665	0.5382	-0.071
Mof_H 	H 	0.7433	0.3817	0.5418	0.056
Mof_C 	C 	0.662	0.3049	0.5909	0.007
Mof_H 	H 	0.6956	0.2789	0.6297	0.034
Mof_N 	N 	0.5832	0.2823	0.5855	-0.073
Mof_C 	C 	0.53289	0.3212	0.5274	0.007
Mof_H 	H 	0.4802	0.306	0.5238	0.013
Mof_C 	C 	0.5614	0.3827	0.4747	-0.067
Mof_H 	H 	0.5278	0.4088	0.4358	0.052
Mof_C 	C 	0.8415	0.4683	0.3082	0.358
Mof_C 	C 	0.5996	0.6872	0.2972	0.402
Mof_O 	O 	0.8782	0.4056	0.35029	-0.446
Mof_O 	O 	0.86326	0.5024	0.2501	-0.315
Mof_O 	O 	0.54285	0.7049	0.3324	-0.458
Mof_O 	O 	0.61709	0.7314	0.2414	-0.422
Mof_H 	H 	0.4712	0.9467	0.2582	0.266
Mof_C 	C 	0.6322	0.3998	0.4662	0.055
Mof_C 	C 	0.6303	0.2965	0.4591	-0.095
Mof_H 	H 	0.6452	0.2666	0.4164	0.065
Mof_C 	C 	0.6061	0.238	0.5159	0.017
Mof_H 	H 	0.6049	0.1689	0.5111	0.012
Mof_N 	N 	0.5838	0.2828	0.5797	-0.107
Mof_C 	C 	0.5857	0.3861	0.5868	0.033
Mof_H 	H 	0.5708	0.416	0.6295	0.022
Mof_C 	C 	0.6099	0.4446	0.53	-0.092
Mof_H 	H 	0.6112	0.5137	0.5348	0.061
Mof_H 	H 	0.5215	0.9104	0.2109	0.145
Mof_Ni	Ni	0.95956	0.69406	0.83438	1.087
Mof_C 	C 	0.1681	0.033	0.9183	-0.047
Mof_C 	C 	0.239	0.0546	0.8929	0.004
Mof_H 	H 	0.2698	0.1054	0.9153	0.042
Mof_C 	C 	0.2651	0.0006	0.8337	-0.102
Mof_C 	C 	0.2211	0.9218	0.8022	0.043
Mof_H 	H 	0.2379	0.8859	0.7629	0.037
Mof_C 	C 	0.1507	0.8968	0.8304	-0.11
Mof_C 	C 	0.126	0.9514	0.887	0.012
Mof_H 	H 	0.0797	0.9339	0.9054	0.044
Mof_C 	C 	0.1402	0.0946	0.9801	0.043
Mof_C 	C 	0.19053	0.1335	0.0382	-0.112
Mof_H 	H 	0.2433	0.1183	0.0418	0.071
Mof_C 	C 	0.162	0.1951	0.0909	0.052
Mof_H 	H 	0.1956	0.2211	0.1297	0.02
Mof_N 	N 	0.0832	0.2177	0.0855	-0.08
Mof_C 	C 	0.03289	0.1788	0.0274	0.15
Mof_H 	H 	0.9802	0.194	0.0238	-0.063
Mof_C 	C 	0.0614	0.1173	0.9747	-0.158
Mof_H 	H 	0.0278	0.0912	0.9358	0.098
Mof_C 	C 	0.3415	0.0317	0.8082	0.357
Mof_C 	C 	0.0996	0.8128	0.7972	0.4
Mof_O 	O 	0.3782	0.0944	0.85029	-0.443
Mof_O 	O 	0.36326	0.9976	0.7501	-0.309
Mof_O 	O 	0.04285	0.7951	0.8324	-0.437
Mof_O 	O 	0.11709	0.7686	0.7414	-0.416
Mof_H 	H 	0.9712	0.5533	0.7582	0.226
Mof_C 	C 	0.1322	0.1002	0.9662	0.048
Mof_C 	C 	0.1303	0.2035	0.9591	-0.046
Mof_H 	H 	0.1452	0.2334	0.9164	0.052
Mof_C 	C 	0.1061	0.262	0.0159	-0.036
Mof_H 	H 	0.1049	0.3311	0.0111	0.036
Mof_N 	N 	0.0838	0.2172	0.0797	-0.106
Mof_C 	C 	0.0857	0.1139	0.0868	-0.037
Mof_H 	H 	0.0708	0.084	0.1295	0.057
Mof_C 	C 	0.1099	0.0554	0.03	-0.022
Mof_H 	H 	0.1112	0.9863	0.0348	0.039
Mof_H 	H 	0.0215	0.5896	0.7109	0.114
Mof_Ni	Ni	0.45956	0.19406	0.83438	1.099
Mof_C 	C 	0.6681	0.533	0.9183	-0.047
Mof_C 	C 	0.739	0.5546	0.8929	0.003
Mof_H 	H 	0.7698	0.6054	0.9153	0.041
Mof_C 	C 	0.7651	0.5006	0.8337	-0.104
Mof_C 	C 	0.7211	0.4218	0.8022	0.042
Mof_H 	H 	0.7379	0.3859	0.7629	0.035
Mof_C 	C 	0.6507	0.3968	0.8304	-0.116
Mof_C 	C 	0.626	0.4514	0.887	0.011
Mof_H 	H 	0.5797	0.4339	0.9054	0.036
Mof_C 	C 	0.6402	0.5946	0.9801	0.03
Mof_C 	C 	0.69053	0.6335	0.0382	-0.072
Mof_H 	H 	0.7433	0.6183	0.0418	0.055
Mof_C 	C 	0.662	0.6951	0.0909	0.006
Mof_H 	H 	0.6956	0.7211	0.1297	0.035
Mof_N 	N 	0.5832	0.7177	0.0855	-0.073
Mof_C 	C 	0.53289	0.6788	0.0274	-0
Mof_H 	H 	0.4802	0.694	0.0238	0.015
Mof_C 	C 	0.5614	0.6173	0.9747	-0.059
Mof_H 	H 	0.5278	0.5912	0.9358	0.05
Mof_C 	C 	0.8415	0.5317	0.8082	0.358
Mof_C 	C 	0.5996	0.3128	0.7972	0.402
Mof_O 	O 	0.8782	0.5944	0.85029	-0.446
Mof_O 	O 	0.86326	0.4976	0.7501	-0.315
Mof_O 	O 	0.54285	0.2951	0.8324	-0.458
Mof_O 	O 	0.61709	0.2686	0.7414	-0.422
Mof_H 	H 	0.4712	0.0533	0.7582	0.266
Mof_C 	C 	0.6322	0.6002	0.9662	0.059
Mof_C 	C 	0.6303	0.7035	0.9591	-0.093
Mof_H 	H 	0.6452	0.7334	0.9164	0.065
Mof_C 	C 	0.6061	0.762	0.0159	0.015
Mof_H 	H 	0.6049	0.8311	0.0111	0.011
Mof_N 	N 	0.5838	0.7172	0.0797	-0.107
Mof_C 	C 	0.5857	0.6139	0.0868	0.037
Mof_H 	H 	0.5708	0.584	0.1295	0.02
Mof_C 	C 	0.6099	0.5554	0.03	-0.1
Mof_H 	H 	0.6112	0.4863	0.0348	0.064
Mof_H 	H 	0.5215	0.0896	0.7109	0.146
Mof_Ni	Ni	0.04044	0.69406	0.66562	1.11
Mof_C 	C 	0.8319	0.033	0.5817	-0.048
Mof_C 	C 	0.761	0.0546	0.6071	0.002
Mof_H 	H 	0.7302	0.1054	0.5847	0.042
Mof_C 	C 	0.7349	0.0006	0.6663	-0.104
Mof_C 	C 	0.7789	0.9218	0.6978	0.044
Mof_H 	H 	0.7621	0.8859	0.7371	0.035
Mof_C 	C 	0.8493	0.8968	0.6696	-0.121
Mof_C 	C 	0.874	0.9514	0.613	0.013
Mof_H 	H 	0.9203	0.9339	0.5946	0.029
Mof_C 	C 	0.8598	0.0946	0.5199	0.019
Mof_C 	C 	0.80947	0.1335	0.4618	-0.033
Mof_H 	H 	0.7567	0.1183	0.4582	0.044
Mof_C 	C 	0.838	0.1951	0.4091	-0.037
Mof_H 	H 	0.8044	0.2211	0.3703	0.051
Mof_N 	N 	0.9168	0.2177	0.4145	-0.065
Mof_C 	C 	0.96711	0.1788	0.4726	-0.141
Mof_H 	H 	0.0198	0.194	0.4762	0.093
Mof_C 	C 	0.9386	0.1173	0.5253	0.026
Mof_H 	H 	0.9722	0.0912	0.5642	0.006
Mof_C 	C 	0.6585	0.0317	0.6918	0.356
Mof_C 	C 	0.9004	0.8128	0.7028	0.404
Mof_O 	O 	0.6218	0.0944	0.64971	-0.444
Mof_O 	O 	0.63674	0.9976	0.7499	-0.31
Mof_O 	O 	0.95715	0.7951	0.6676	-0.482
Mof_O 	O 	0.88291	0.7686	0.7586	-0.429
Mof_H 	H 	0.0288	0.5533	0.7418	0.264
Mof_C 	C 	0.8678	0.1002	0.5338	0.063
Mof_C 	C 	0.8697	0.2035	0.5409	-0.141
Mof_H 	H 	0.8548	0.2334	0.5836	0.078
Mof_C 	C 	0.8939	0.262	0.4841	0.068
Mof_H 	H 	0.8951	0.3311	0.4889	-0.012
Mof_N 	N 	0.9162	0.2172	0.4203	-0.108
Mof_C 	C 	0.9143	0.1139	0.4132	0.102
Mof_H 	H 	0.9292	0.084	0.3705	-0.014
Mof_C 	C 	0.8901	0.0554	0.47	-0.159
Mof_H 	H 	0.8888	0.9863	0.4652	0.08
Mof_H 	H 	0.9785	0.5896	0.7891	0.098
Mof_Ni	Ni	0.54044	0.19406	0.66562	1.099
Mof_C 	C 	0.3319	0.533	0.5817	-0.045
Mof_C 	C 	0.261	0.5546	0.6071	0.002
Mof_H 	H 	0.2302	0.6054	0.5847	0.043
Mof_C 	C 	0.2349	0.5006	0.6663	-0.098
Mof_C 	C 	0.2789	0.4218	0.6978	0.04
Mof_H 	H 	0.2621	0.3859	0.7371	0.039
Mof_C 	C 	0.3493	0.3968	0.6696	-0.113
Mof_C 	C 	0.374	0.4514	0.613	0.01
Mof_H 	H 	0.4203	0.4339	0.5946	0.037
Mof_C 	C 	0.3598	0.5946	0.5199	0.032
Mof_C 	C 	0.30947	0.6335	0.4618	-0.071
Mof_H 	H 	0.2567	0.6183	0.4582	0.058
Mof_C 	C 	0.338	0.6951	0.4091	0.007
Mof_H 	H 	0.3044	0.7211	0.3703	0.036
Mof_N 	N 	0.4168	0.7177	0.4145	-0.073
Mof_C 	C 	0.46711	0.6788	0.4726	0.007
Mof_H 	H 	0.5198	0.694	0.4762	0.013
Mof_C 	C 	0.4386	0.6173	0.5253	-0.068
Mof_H 	H 	0.4722	0.5912	0.5642	0.052
Mof_C 	C 	0.1585	0.5317	0.6918	0.356
Mof_C 	C 	0.4004	0.3128	0.7028	0.402
Mof_O 	O 	0.1218	0.5944	0.64971	-0.437
Mof_O 	O 	0.13674	0.4976	0.7499	-0.301
Mof_O 	O 	0.45715	0.2951	0.6676	-0.457
Mof_O 	O 	0.38291	0.2686	0.7586	-0.42
Mof_H 	H 	0.5288	0.0533	0.7418	0.266
Mof_C 	C 	0.3678	0.6002	0.5338	0.055
Mof_C 	C 	0.3697	0.7035	0.5409	-0.095
Mof_H 	H 	0.3548	0.7334	0.5836	0.065
Mof_C 	C 	0.3939	0.762	0.4841	0.017
Mof_H 	H 	0.3951	0.8311	0.4889	0.011
Mof_N 	N 	0.4162	0.7172	0.4203	-0.107
Mof_C 	C 	0.4143	0.6139	0.4132	0.033
Mof_H 	H 	0.4292	0.584	0.3705	0.022
Mof_C 	C 	0.3901	0.5554	0.47	-0.091
Mof_H 	H 	0.3888	0.4863	0.4652	0.062
Mof_H 	H 	0.4785	0.0896	0.7891	0.146
Mof_O 	O 	-3.4149e-18	0.3975	0.25	-0.897
Mof_O 	O 	0.5	0.8975	0.25	-1.014
Mof_O 	O 	-1.36596e-17	0.6025	0.75	-0.894
Mof_O 	O 	0.5	0.1025	0.75	-1.014
_end
