data_functionalizedCrystal
_audit_creation_method	'EQeq! by Chris Wilmer'
_symmetry_space_group_name_H-M	'P1'
_symmetry_Int_Tables_number	1
_symmetry_cell_setting	triclinic
loop_
_symmetry_equiv_pos_as_xyz
  x,y,z
_cell_length_a	14.8303
_cell_length_b	17.913
_cell_length_c	29.8943
_cell_angle_alpha	96.803
_cell_angle_beta	93.488
_cell_angle_gamma	110.229
loop_
_atom_site_label
_atom_site_type_symbol
_atom_site_fract_x
_atom_site_fract_y
_atom_site_fract_z
_atom_site_charge
Mof_Zn	Zn	0.05302	0.34626	0.90654	1.158
Mof_Zn	Zn	0.72095	0.75335	0.56224	1.158
Mof_Zn	Zn	0.78251	0.34862	0.39954	1.161
Mof_Zn	Zn	0.4602	0.17386	0.21617	1.157
Mof_N 	N 	0.9438	0.2681	0.8587	-0.272
Mof_C 	C 	0.8705	0.2912	0.8452	0.07
Mof_H 	H 	0.8707	0.3424	0.858	-0.015
Mof_C 	C 	0.7957	0.2433	0.8138	-0.116
Mof_H 	H 	0.7438	0.2604	0.8058	0.077
Mof_C 	C 	0.7964	0.1694	0.7937	0.056
Mof_C 	C 	0.8716	0.1461	0.8072	-0.129
Mof_H 	H 	0.8745	0.0961	0.7943	0.075
Mof_C 	C 	0.9435	0.1974	0.8403	0.071
Mof_H 	H 	0.9947	0.1806	0.8501	-0.022
Mof_N 	N 	0.6959	0.8336	0.6109	-0.273
Mof_C 	C 	0.7572	0.8683	0.6487	0.061
Mof_H 	H 	0.8107	0.8519	0.6547	-0.003
Mof_C 	C 	0.7443	0.9274	0.6791	-0.121
Mof_H 	H 	0.7898	0.9522	0.7051	0.087
Mof_C 	C 	0.6664	0.9499	0.6719	0.041
Mof_C 	C 	0.6034	0.9136	0.633	-0.117
Mof_H 	H 	0.5492	0.9288	0.6266	0.072
Mof_C 	C 	0.6192	0.8557	0.6036	0.06
Mof_H 	H 	0.5746	0.8306	0.5773	-0.009
Mof_N 	N 	0.2958	0.1236	0.7384	-0.293
Mof_C 	C 	0.3734	0.1654	0.7669	0.075
Mof_H 	H 	0.3692	0.2043	0.7904	-0.02
Mof_C 	C 	0.4609	0.1542	0.7634	-0.132
Mof_H 	H 	0.5149	0.1842	0.785	0.08
Mof_C 	C 	0.4701	0.1012	0.7297	0.067
Mof_C 	C 	0.3911	0.0571	0.7004	-0.14
Mof_H 	H 	0.3937	0.0182	0.6765	0.076
Mof_C 	C 	0.3035	0.0716	0.707	0.085
Mof_H 	H 	0.2475	0.0408	0.6868	-0.029
Mof_C 	C 	0.7163	0.1186	0.7592	0.1
Mof_N 	N 	0.7255	0.0548	0.7356	-0.142
Mof_C 	C 	0.6526	0.0143	0.703	0.083
Mof_N 	N 	0.5697	0.0286	0.698	-0.143
Mof_C 	C 	0.564	0.0879	0.7271	0.095
Mof_N 	N 	0.6369	0.138	0.7573	-0.137
Mof_N 	N 	0.5882	0.6598	0.5539	-0.274
Mof_C 	C 	0.5296	0.6337	0.5157	0.074
Mof_H 	H 	0.5479	0.659	0.4897	-0.014
Mof_C 	C 	0.4412	0.5694	0.5126	-0.121
Mof_H 	H 	0.3994	0.5519	0.485	0.073
Mof_C 	C 	0.4159	0.5322	0.5498	0.047
Mof_C 	C 	0.4743	0.5603	0.5904	-0.126
Mof_H 	H 	0.457	0.5367	0.6169	0.077
Mof_C 	C 	0.5609	0.6257	0.5905	0.066
Mof_H 	H 	0.602	0.6466	0.6181	-0.021
Mof_N 	N 	0.9062	0.3811	0.445	-0.272
Mof_C 	C 	0.9896	0.4402	0.4409	0.073
Mof_H 	H 	0.9902	0.4755	0.4195	-0
Mof_C 	C 	0.0744	0.4508	0.4671	-0.12
Mof_H 	H 	0.1322	0.4936	0.4641	0.086
Mof_C 	C 	0.0743	0.3992	0.4973	0.054
Mof_C 	C 	0.9886	0.3404	0.5026	-0.122
Mof_H 	H 	0.9862	0.3051	0.5242	0.076
Mof_C 	C 	0.9056	0.3334	0.4757	0.066
Mof_H 	H 	0.8462	0.293	0.4795	-0.025
Mof_N 	N 	0.1954	0.2185	0.6865	-0.281
Mof_C 	C 	0.2725	0.2852	0.6891	0.052
Mof_H 	H 	0.3173	0.301	0.7156	-0.01
Mof_C 	C 	0.2905	0.3326	0.655	-0.104
Mof_H 	H 	0.3475	0.379	0.6571	0.046
Mof_C 	C 	0.2207	0.309	0.617	0.052
Mof_C 	C 	0.1436	0.2398	0.6145	-0.116
Mof_H 	H 	0.0974	0.2219	0.5885	0.078
Mof_C 	C 	0.1322	0.1957	0.6494	0.062
Mof_H 	H 	0.0777	0.1473	0.6472	-0.019
Mof_C 	C 	0.3221	0.4646	0.5486	0.082
Mof_N 	N 	0.2478	0.4624	0.5204	-0.151
Mof_C 	C 	0.164	0.404	0.5255	0.081
Mof_N 	N 	0.1529	0.3532	0.5547	-0.142
Mof_C 	C 	0.2323	0.3612	0.5806	0.099
Mof_N 	N 	0.3201	0.4158	0.5786	-0.142
Mof_N 	N 	0.8185	0.2717	0.3528	-0.272
Mof_C 	C 	0.7526	0.2073	0.3288	0.062
Mof_H 	H 	0.6881	0.1909	0.3364	-0.014
Mof_C 	C 	0.7751	0.162	0.2922	-0.121
Mof_H 	H 	0.7258	0.1171	0.2746	0.073
Mof_C 	C 	0.8686	0.1835	0.2822	0.054
Mof_C 	C 	0.9359	0.2502	0.3083	-0.114
Mof_H 	H 	0.0016	0.2665	0.3024	0.085
Mof_C 	C 	0.9099	0.2936	0.3427	0.066
Mof_H 	H 	0.9576	0.3402	0.3597	-0.005
Mof_N 	N 	0.6448	0.8761	0.0841	-0.359
Mof_C 	C 	0.7361	0.8764	0.0873	0.05
Mof_H 	H 	0.7517	0.8399	0.0663	-0.025
Mof_C 	C 	0.8077	0.9277	0.1199	-0.115
Mof_H 	H 	0.8712	0.926	0.1215	0.071
Mof_C 	C 	0.7853	0.9821	0.1504	0.033
Mof_C 	C 	0.6913	0.9813	0.1479	-0.108
Mof_H 	H 	0.6738	0.017	0.1687	0.084
Mof_C 	C 	0.6238	0.9278	0.1146	0.047
Mof_H 	H 	0.5594	0.9273	0.113	-0.011
Mof_N 	N 	0.3143	0.1583	0.2094	-0.276
Mof_C 	C 	0.2502	0.0995	0.18	0.071
Mof_H 	H 	0.2727	0.0658	0.1602	-0.019
Mof_C 	C 	0.1533	0.0856	0.1773	-0.129
Mof_H 	H 	0.1098	0.0438	0.1554	0.075
Mof_C 	C 	0.1195	0.1325	0.2062	0.058
Mof_C 	C 	0.1858	0.1955	0.2371	-0.118
Mof_H 	H 	0.1652	0.2299	0.2573	0.081
Mof_C 	C 	0.283	0.2055	0.2369	0.069
Mof_H 	H 	0.3291	0.2481	0.2574	-0.017
Mof_C 	C 	0.8964	0.1368	0.245	0.104
Mof_N 	N 	0.9905	0.1595	0.2411	-0.136
Mof_C 	C 	0.0123	0.1145	0.2084	0.104
Mof_N 	N 	0.9517	0.0557	0.1777	-0.144
Mof_C 	C 	0.8597	0.0432	0.1848	0.091
Mof_N 	N 	0.8272	0.078	0.2185	-0.146
Mof_N 	N 	0.5134	0.2439	0.1674	-0.278
Mof_C 	C 	0.5846	0.2327	0.1453	0.073
Mof_H 	H 	0.6088	0.1924	0.1525	-0.014
Mof_C 	C 	0.6236	0.2776	0.1126	-0.115
Mof_H 	H 	0.6718	0.2669	0.0962	0.089
Mof_C 	C 	0.5915	0.3392	0.1037	0.05
Mof_C 	C 	0.5193	0.3505	0.1264	-0.124
Mof_H 	H 	0.4951	0.3913	0.1203	0.075
Mof_C 	C 	0.4819	0.3021	0.1581	0.055
Mof_H 	H 	0.4318	0.3105	0.174	0.002
Mof_N 	N 	0.963	0.3822	0.9484	-0.273
Mof_C 	C 	0.9387	0.4463	0.9444	0.075
Mof_H 	H 	0.973	0.4832	0.9255	-0.013
Mof_C 	C 	0.8674	0.4618	0.9659	-0.129
Mof_H 	H 	0.852	0.5078	0.9615	0.073
Mof_C 	C 	0.818	0.4104	0.9939	0.05
Mof_C 	C 	0.8444	0.3441	-0	-0.108
Mof_H 	H 	0.8139	0.308	0.02	0.089
Mof_C 	C 	0.9161	0.3331	0.976	0.07
Mof_H 	H 	0.9331	0.2875	0.9795	-0.014
Mof_N 	N 	0.5765	0.7057	0.0261	-0.372
Mof_C 	C 	0.5618	0.6684	0.0617	0.084
Mof_H 	H 	0.535	0.6891	0.0862	-0.081
Mof_C 	C 	0.5838	0.5999	0.0649	-0.147
Mof_H 	H 	0.5755	0.5755	0.0916	0.084
Mof_C 	C 	0.6177	0.5686	0.0288	0.086
Mof_C 	C 	0.6342	0.6077	0.9931	-0.164
Mof_H 	H 	0.6613	0.5885	0.9682	0.091
Mof_C 	C 	0.6115	0.6762	0.9925	0.119
Mof_H 	H 	0.622	0.7027	0.9666	-0.053
Mof_C 	C 	0.6341	0.3905	0.0698	0.087
Mof_N 	N 	0.7012	0.3736	0.0473	-0.137
Mof_C 	C 	0.7375	0.4229	0.0175	0.088
Mof_N 	N 	0.713	0.4859	0.0094	-0.146
Mof_C 	C 	0.6454	0.4969	0.0346	0.078
Mof_N 	N 	0.6037	0.4515	0.065	-0.14
Mof_I 	I 	0.125	0.2753	0.9488	-0.04
Mof_I 	I 	0.138	0.4733	0.8666	-0.256
Mof_I 	I 	0.7407	0.8189	0.49047	-0.2
Mof_I 	I 	0.8381	0.6988	0.60069	-0.167
Mof_Zn	Zn	0.177	0.1598	0.74301	0.6
Mof_I 	I 	0.21227	0.26611	0.812	-0.449
Mof_I 	I 	0.02142	0.04238	0.72207	0.072
Mof_I 	I 	0.7883	0.46434	0.35861	-0.129
Mof_I 	I 	0.6409	0.2609	0.43751	-0.254
Mof_Zn	Zn	0.5645	0.8202	0.0191	1.117
Mof_I 	I 	0.3959	0.8018	0.037	-0.138
Mof_I 	I 	0.6507	0.8847	0.9521	0.598
Mof_I 	I 	0.5298	0.265	0.29434	-0.293
Mof_I 	I 	0.478	0.0444	0.1911	-0.058
Mof_I 	I 	0.1234	0.2543	0.952	-0.327
Mof_I 	I 	0.1408	0.4589	0.8695	-0.074
Mof_I 	I 	0.7424	0.8121	0.49052	-0.159
Mof_I 	I 	0.8405	0.7029	0.60215	-0.166
Mof_Zn	Zn	0.1687	0.1421	0.7342	0.606
Mof_I 	I 	0.1836	0.23	0.8104	0.015
Mof_I 	I 	0.0193	0.013	0.7089	-0.451
Mof_I 	I 	0.808	0.4687	0.3549	-0.205
Mof_I 	I 	0.6489	0.2753	0.4365	-0.116
Mof_Zn	Zn	0.5419	0.8118	0.029	-0.181
Mof_I 	I 	0.3837	0.7788	0.0669	-0.582
Mof_I 	I 	0.5891	0.8768	0.96131	-0.926
Mof_I 	I 	0.5289	0.2419	0.2908	-0.109
Mof_I 	I 	0.4739	0.0305	0.1838	-0.262
Mof_Zn	Zn	0.5274	0.7952	0.0482	1.027
Mof_I 	I 	0.378	0.7512	0.0967	0.208
Mof_I 	I 	0.5269	0.8588	0.9789	-0.261
Mof_Zn	Zn	0.94698	0.65374	0.09346	1.157
Mof_Zn	Zn	0.27905	0.24665	0.43776	1.157
Mof_Zn	Zn	0.21749	0.65138	0.60046	1.16
Mof_Zn	Zn	0.5398	0.82614	0.78383	1.156
Mof_N 	N 	0.0562	0.7319	0.1413	-0.273
Mof_C 	C 	0.1295	0.7088	0.1548	0.069
Mof_H 	H 	0.1293	0.6576	0.142	-0.016
Mof_C 	C 	0.2043	0.7567	0.1862	-0.117
Mof_H 	H 	0.2562	0.7396	0.1942	0.076
Mof_C 	C 	0.2036	0.8306	0.2063	0.056
Mof_C 	C 	0.1284	0.8539	0.1928	-0.129
Mof_H 	H 	0.1255	0.9039	0.2057	0.075
Mof_C 	C 	0.0565	0.8026	0.1597	0.071
Mof_H 	H 	0.0053	0.8194	0.1499	-0.022
Mof_N 	N 	0.3041	0.1664	0.3891	-0.273
Mof_C 	C 	0.2428	0.1317	0.3513	0.061
Mof_H 	H 	0.1893	0.1481	0.3453	-0.003
Mof_C 	C 	0.2557	0.0726	0.3209	-0.121
Mof_H 	H 	0.2102	0.0478	0.2949	0.087
Mof_C 	C 	0.3336	0.0501	0.3281	0.041
Mof_C 	C 	0.3966	0.0864	0.367	-0.117
Mof_H 	H 	0.4508	0.0712	0.3734	0.072
Mof_C 	C 	0.3808	0.1443	0.3964	0.06
Mof_H 	H 	0.4254	0.1694	0.4227	-0.009
Mof_N 	N 	0.7042	0.8764	0.2616	-0.293
Mof_C 	C 	0.6266	0.8346	0.2331	0.075
Mof_H 	H 	0.6308	0.7957	0.2096	-0.02
Mof_C 	C 	0.5391	0.8458	0.2366	-0.132
Mof_H 	H 	0.4851	0.8158	0.215	0.08
Mof_C 	C 	0.5299	0.8988	0.2703	0.067
Mof_C 	C 	0.6089	0.9429	0.2996	-0.14
Mof_H 	H 	0.6063	0.9818	0.3235	0.076
Mof_C 	C 	0.6965	0.9284	0.293	0.085
Mof_H 	H 	0.7525	0.9592	0.3132	-0.029
Mof_C 	C 	0.2837	0.8814	0.2408	0.1
Mof_N 	N 	0.2745	0.9452	0.2644	-0.142
Mof_C 	C 	0.3474	0.9857	0.297	0.083
Mof_N 	N 	0.4303	0.9714	0.302	-0.143
Mof_C 	C 	0.436	0.9121	0.2729	0.095
Mof_N 	N 	0.3631	0.862	0.2427	-0.137
Mof_N 	N 	0.4118	0.3402	0.4461	-0.274
Mof_C 	C 	0.4704	0.3663	0.4843	0.074
Mof_H 	H 	0.4521	0.341	0.5103	-0.014
Mof_C 	C 	0.5588	0.4306	0.4874	-0.121
Mof_H 	H 	0.6006	0.4481	0.515	0.073
Mof_C 	C 	0.5841	0.4678	0.4502	0.047
Mof_C 	C 	0.5257	0.4397	0.4096	-0.126
Mof_H 	H 	0.543	0.4633	0.3831	0.077
Mof_C 	C 	0.4391	0.3743	0.4095	0.066
Mof_H 	H 	0.398	0.3534	0.3819	-0.021
Mof_N 	N 	0.0938	0.6189	0.555	-0.272
Mof_C 	C 	0.0104	0.5598	0.5591	0.073
Mof_H 	H 	0.0098	0.5245	0.5805	-0
Mof_C 	C 	0.9256	0.5492	0.5329	-0.119
Mof_H 	H 	0.8678	0.5064	0.5359	0.086
Mof_C 	C 	0.9257	0.6008	0.5027	0.054
Mof_C 	C 	0.0114	0.6596	0.4974	-0.122
Mof_H 	H 	0.0138	0.6949	0.4758	0.076
Mof_C 	C 	0.0944	0.6666	0.5243	0.066
Mof_H 	H 	0.1538	0.707	0.5205	-0.025
Mof_N 	N 	0.8046	0.7815	0.3135	-0.281
Mof_C 	C 	0.7275	0.7148	0.3109	0.052
Mof_H 	H 	0.6827	0.699	0.2844	-0.01
Mof_C 	C 	0.7095	0.6674	0.345	-0.104
Mof_H 	H 	0.6525	0.621	0.3429	0.046
Mof_C 	C 	0.7793	0.691	0.383	0.052
Mof_C 	C 	0.8564	0.7602	0.3855	-0.116
Mof_H 	H 	0.9026	0.7781	0.4115	0.078
Mof_C 	C 	0.8678	0.8043	0.3506	0.062
Mof_H 	H 	0.9223	0.8527	0.3528	-0.019
Mof_C 	C 	0.6779	0.5354	0.4514	0.082
Mof_N 	N 	0.7522	0.5376	0.4796	-0.151
Mof_C 	C 	0.836	0.596	0.4745	0.081
Mof_N 	N 	0.8471	0.6468	0.4453	-0.142
Mof_C 	C 	0.7677	0.6388	0.4194	0.099
Mof_N 	N 	0.6799	0.5842	0.4214	-0.142
Mof_N 	N 	0.1815	0.7283	0.6472	-0.272
Mof_C 	C 	0.2474	0.7927	0.6712	0.062
Mof_H 	H 	0.3119	0.8091	0.6636	-0.014
Mof_C 	C 	0.2249	0.838	0.7078	-0.121
Mof_H 	H 	0.2742	0.8829	0.7254	0.073
Mof_C 	C 	0.1314	0.8165	0.7178	0.054
Mof_C 	C 	0.0641	0.7498	0.6917	-0.114
Mof_H 	H 	0.9984	0.7335	0.6976	0.085
Mof_C 	C 	0.0901	0.7064	0.6573	0.066
Mof_H 	H 	0.0424	0.6598	0.6403	-0.005
Mof_N 	N 	0.3552	0.1239	0.9159	-0.359
Mof_C 	C 	0.2639	0.1236	0.9127	0.05
Mof_H 	H 	0.2483	0.1601	0.9337	-0.026
Mof_C 	C 	0.1923	0.0723	0.8801	-0.115
Mof_H 	H 	0.1288	0.074	0.8785	0.071
Mof_C 	C 	0.2147	0.0179	0.8496	0.033
Mof_C 	C 	0.3087	0.0187	0.8521	-0.108
Mof_H 	H 	0.3262	0.983	0.8313	0.084
Mof_C 	C 	0.3762	0.0722	0.8854	0.047
Mof_H 	H 	0.4406	0.0727	0.887	-0.011
Mof_N 	N 	0.6857	0.8417	0.7906	-0.276
Mof_C 	C 	0.7498	0.9005	0.82	0.071
Mof_H 	H 	0.7273	0.9342	0.8398	-0.02
Mof_C 	C 	0.8467	0.9144	0.8227	-0.129
Mof_H 	H 	0.8902	0.9562	0.8446	0.075
Mof_C 	C 	0.8805	0.8675	0.7938	0.058
Mof_C 	C 	0.8142	0.8045	0.7629	-0.118
Mof_H 	H 	0.8348	0.7701	0.7427	0.081
Mof_C 	C 	0.717	0.7945	0.7631	0.069
Mof_H 	H 	0.6709	0.7519	0.7426	-0.017
Mof_C 	C 	0.1036	0.8632	0.755	0.104
Mof_N 	N 	0.0095	0.8405	0.7589	-0.137
Mof_C 	C 	0.9877	0.8855	0.7916	0.104
Mof_N 	N 	0.0483	0.9443	0.8223	-0.144
Mof_C 	C 	0.1403	0.9568	0.8152	0.091
Mof_N 	N 	0.1728	0.922	0.7815	-0.146
Mof_N 	N 	0.4866	0.7561	0.8326	-0.278
Mof_C 	C 	0.4154	0.7673	0.8547	0.073
Mof_H 	H 	0.3912	0.8076	0.8475	-0.014
Mof_C 	C 	0.3764	0.7224	0.8874	-0.115
Mof_H 	H 	0.3282	0.7331	0.9038	0.088
Mof_C 	C 	0.4085	0.6608	0.8963	0.05
Mof_C 	C 	0.4807	0.6495	0.8736	-0.124
Mof_H 	H 	0.5049	0.6087	0.8797	0.075
Mof_C 	C 	0.5181	0.6979	0.8419	0.055
Mof_H 	H 	0.5682	0.6895	0.826	0.002
Mof_N 	N 	0.037	0.6178	0.0516	-0.274
Mof_C 	C 	0.0613	0.5537	0.0556	0.08
Mof_H 	H 	0.027	0.5168	0.0745	-0.013
Mof_C 	C 	0.1326	0.5382	0.0341	-0.135
Mof_H 	H 	0.148	0.4922	0.0385	0.076
Mof_C 	C 	0.182	0.5896	0.0061	0.061
Mof_C 	C 	0.1556	0.6559	-0	-0.115
Mof_H 	H 	0.1861	0.692	0.98	0.089
Mof_C 	C 	0.0839	0.6669	0.024	0.075
Mof_H 	H 	0.0669	0.7125	0.0205	-0.014
Mof_N 	N 	0.4235	0.2943	0.9739	-0.374
Mof_C 	C 	0.4382	0.3316	0.9383	0.081
Mof_H 	H 	0.465	0.3109	0.9138	-0.081
Mof_C 	C 	0.4162	0.4001	0.9351	-0.143
Mof_H 	H 	0.4245	0.4245	0.9084	0.082
Mof_C 	C 	0.3823	0.4314	0.9712	0.077
Mof_C 	C 	0.3658	0.3923	0.0069	-0.155
Mof_H 	H 	0.3387	0.4115	0.0318	0.09
Mof_C 	C 	0.3885	0.3238	0.0075	0.121
Mof_H 	H 	0.378	0.2973	0.0334	-0.053
Mof_C 	C 	0.3659	0.6095	0.9302	0.086
Mof_N 	N 	0.2988	0.6264	0.9527	-0.136
Mof_C 	C 	0.2625	0.5771	0.9825	0.082
Mof_N 	N 	0.287	0.5141	0.9906	-0.147
Mof_C 	C 	0.3546	0.5031	0.9654	0.079
Mof_N 	N 	0.3963	0.5485	0.935	-0.14
Mof_I 	I 	0.875	0.7247	0.0512	-0.038
Mof_I 	I 	0.862	0.5267	0.1334	-0.256
Mof_I 	I 	0.2593	0.1811	0.50953	-0.2
Mof_I 	I 	0.1619	0.3012	0.39931	-0.167
Mof_Zn	Zn	0.823	0.8402	0.25699	0.6
Mof_I 	I 	0.78773	0.73389	0.188	-0.449
Mof_I 	I 	0.97858	0.95762	0.27793	0.072
Mof_I 	I 	0.2117	0.53566	0.64139	-0.129
Mof_I 	I 	0.3591	0.7391	0.56249	-0.254
Mof_Zn	Zn	0.4355	0.1798	0.9809	1.115
Mof_I 	I 	0.6041	0.1982	0.963	-0.139
Mof_I 	I 	0.3493	0.1153	0.0479	0.595
Mof_I 	I 	0.4702	0.735	0.70566	-0.293
Mof_I 	I 	0.522	0.9556	0.8089	-0.058
Mof_I 	I 	0.8766	0.7457	0.048	-0.326
Mof_I 	I 	0.8592	0.5411	0.1305	-0.074
Mof_I 	I 	0.2576	0.1879	0.50948	-0.159
Mof_I 	I 	0.1595	0.2971	0.39785	-0.166
Mof_Zn	Zn	0.8313	0.8579	0.2658	0.606
Mof_I 	I 	0.8164	0.77	0.1896	0.015
Mof_I 	I 	0.9807	0.987	0.2911	-0.451
Mof_I 	I 	0.192	0.5313	0.6451	-0.205
Mof_I 	I 	0.3511	0.7247	0.5635	-0.116
Mof_Zn	Zn	0.4581	0.1882	0.971	-0.181
Mof_I 	I 	0.6163	0.2212	0.9331	-0.588
Mof_I 	I 	0.4109	0.1232	0.03869	-0.918
Mof_I 	I 	0.4711	0.7581	0.7092	-0.109
Mof_I 	I 	0.5261	0.9695	0.8162	-0.262
Mof_Zn	Zn	0.4726	0.2048	0.9518	1.027
Mof_I 	I 	0.622	0.2488	0.9033	0.211
Mof_I 	I 	0.4731	0.1412	0.0211	-0.26
Mof_C 	C 	0.394	0.518	0.2903	-0.715
Mof_C 	C 	0.438	0.599	0.3215	0.171
Mof_H 	H 	0.5065	0.6371	0.3247	-0.043
Mof_C 	C 	0.379	0.547	0.3615	-0.169
Mof_H 	H 	0.4093	0.5499	0.3927	0.076
Mof_C 	C 	0.348	0.472	0.3241	0.234
Mof_H 	H 	0.349	0.4176	0.3286	-0.068
Mof_C 	C 	0.255	0.49	0.3085	-0.127
Mof_H 	H 	0.1868	0.4503	0.3039	0.079
Mof_C 	C 	0.304	0.54	0.2743	0.183
Mof_H 	H 	0.2779	0.5376	0.2423	-0.039
Mof_C 	C 	0.348	0.616	0.3096	-0.267
Mof_H 	H 	0.3494	0.6704	0.304	0.11
Mof_C 	C 	0.301	0.574	0.3515	0.046
Mof_C 	C 	0.436	0.477	0.2671	1.127
Mof_O 	O 	0.5498	0.5236	0.2633	0.856
Mof_O 	O 	0.4162	0.4338	0.2221	-0.628
Mof_C 	C 	0.615	0.498	0.2371	0.107
Mof_H 	H 	0.6791	0.54	0.2422	-0.11
Mof_H 	H 	0.6185	0.4483	0.2463	0.264
Mof_H 	H 	0.5908	0.4881	0.2048	0.102
Mof_C 	C 	0.284	0.588	0.3982	0.084
Mof_O 	O 	0.279	0.676	0.3921	-0.152
Mof_O 	O 	0.18	0.562	0.3932	-0.165
Mof_C 	C 	0.233	0.711	0.4255	-0.167
Mof_H 	H 	0.2344	0.7635	0.4184	0.073
Mof_H 	H 	0.1661	0.6753	0.4253	0.1
Mof_H 	H 	0.268	0.7184	0.4555	0.072
Mof_C 	C 	0.409	0.005	0.539	-0.338
Mof_H 	H 	0.3388	0.973	0.5321	0.116
Mof_H 	H 	0.4428	0.9686	0.5462	0.097
Mof_C 	C 	0.448	0.045	0.4968	-0.25
Mof_H 	H 	0.415	0.0096	0.468	0.105
Mof_H 	H 	0.4408	0.0977	0.4971	0.118
Mof_C 	C 	0.556	0.053	0.5044	-0.132
Mof_H 	H 	0.5672	0.0065	0.4876	0.266
Mof_H 	H 	0.5991	0.1034	0.4954	0.059
Mof_C 	C 	0.569	0.054	0.5562	-0.231
Mof_H 	H 	0.6377	0.0657	0.5664	0.08
Mof_H 	H 	0.5306	0.0005	0.5638	0.079
Mof_C 	C 	0.534	0.12	0.581	0.383
Mof_H 	H 	0.5657	0.1387	0.6124	-0.098
Mof_H 	H 	0.5463	0.1665	0.5644	-0.097
Mof_C 	C 	0.425	0.072	0.5797	-0.04
Mof_H 	H 	0.3865	0.106	0.5744	0.047
Mof_H 	H 	0.41	0.0494	0.6081	0.028
Mof_C 	C 	0.402	0.679	0.417	0.11
Mof_H 	H 	0.4508	0.6778	0.4404	-0.005
Mof_H 	H 	0.3385	0.6385	0.4206	0.006
Mof_C 	C 	0.431	0.664	0.369	-0.314
Mof_H 	H 	0.3749	0.6275	0.348	0.196
Mof_H 	H 	0.4829	0.6416	0.3696	0.119
Mof_C 	C 	0.467	0.751	0.3555	0.128
Mof_H 	H 	0.4921	0.7493	0.3255	-0.013
Mof_H 	H 	0.4136	0.7714	0.3537	-0.011
Mof_C 	C 	0.548	0.805	0.392	-0.334
Mof_H 	H 	0.5903	0.7756	0.4012	0.134
Mof_H 	H 	0.5881	0.8535	0.3802	0.121
Mof_C 	C 	0.5	0.828	0.4321	0.247
Mof_H 	H 	0.5007	0.8834	0.4334	-0.214
Mof_H 	H 	0.5311	0.8221	0.4611	-0.033
Mof_C 	C 	0.395	0.765	0.421	-0.239
Mof_H 	H 	0.3638	0.7725	0.3928	0.126
Mof_H 	H 	0.3554	0.7722	0.4461	0.105
Mof_C 	C 	0.526	0.506	0.285	-1.202
Mof_H 	H 	0.5703	0.553	0.3065	0.322
Mof_H 	H 	0.4826	0.4688	0.3034	0.248
Mof_C 	C 	0.586	0.463	0.26	-0.768
Mof_H 	H 	0.5416	0.4138	0.24	0.198
Mof_H 	H 	0.6251	0.4461	0.2817	0.217
Mof_C 	C 	0.653	0.519	0.23	0.012
Mof_H 	H 	0.7017	0.5651	0.2503	0.108
Mof_H 	H 	0.6883	0.4889	0.213	-0.003
Mof_C 	C 	0.594	0.548	0.198	-0.602
Mof_H 	H 	0.5494	0.5022	0.1763	0.194
Mof_H 	H 	0.6384	0.5857	0.1799	0.217
Mof_C 	C 	0.536	0.592	0.224	0.59
Mof_H 	H 	0.5809	0.6393	0.2453	-0.156
Mof_H 	H 	0.4992	0.6122	0.2028	-0.143
Mof_C 	C 	0.466	0.534	0.251	-1.437
Mof_H 	H 	0.4219	0.4865	0.2301	0.51
Mof_H 	H 	0.4272	0.5605	0.2674	0.61
Mof_C 	C 	0.606	0.482	0.7097	-0.715
Mof_C 	C 	0.562	0.401	0.6785	0.171
Mof_H 	H 	0.4935	0.3629	0.6753	-0.043
Mof_C 	C 	0.621	0.453	0.6385	-0.169
Mof_H 	H 	0.5907	0.4501	0.6073	0.076
Mof_C 	C 	0.652	0.528	0.6759	0.234
Mof_H 	H 	0.651	0.5824	0.6714	-0.068
Mof_C 	C 	0.745	0.51	0.6915	-0.127
Mof_H 	H 	0.8132	0.5497	0.6961	0.079
Mof_C 	C 	0.696	0.46	0.7257	0.183
Mof_H 	H 	0.7221	0.4624	0.7577	-0.039
Mof_C 	C 	0.652	0.384	0.6904	-0.267
Mof_H 	H 	0.6506	0.3296	0.696	0.11
Mof_C 	C 	0.699	0.426	0.6485	0.046
Mof_C 	C 	0.564	0.523	0.7329	1.127
Mof_O 	O 	0.4502	0.4764	0.7367	0.856
Mof_O 	O 	0.5838	0.5662	0.7779	-0.628
Mof_C 	C 	0.385	0.502	0.7629	0.107
Mof_H 	H 	0.3209	0.46	0.7578	-0.11
Mof_H 	H 	0.3815	0.5517	0.7537	0.264
Mof_H 	H 	0.4092	0.5119	0.7952	0.102
Mof_C 	C 	0.716	0.412	0.6018	0.084
Mof_O 	O 	0.721	0.324	0.6079	-0.152
Mof_O 	O 	0.82	0.438	0.6068	-0.165
Mof_C 	C 	0.767	0.289	0.5745	-0.167
Mof_H 	H 	0.7656	0.2365	0.5816	0.073
Mof_H 	H 	0.8339	0.3247	0.5747	0.1
Mof_H 	H 	0.732	0.2816	0.5445	0.072
Mof_C 	C 	0.591	0.995	0.461	-0.338
Mof_H 	H 	0.6612	0.027	0.4679	0.115
Mof_H 	H 	0.5572	0.0314	0.4538	0.096
Mof_C 	C 	0.552	0.955	0.5032	-0.249
Mof_H 	H 	0.585	0.9904	0.532	0.105
Mof_H 	H 	0.5592	0.9023	0.5029	0.118
Mof_C 	C 	0.444	0.947	0.4956	-0.133
Mof_H 	H 	0.4328	0.9935	0.5124	0.266
Mof_H 	H 	0.4009	0.8966	0.5046	0.059
Mof_C 	C 	0.431	0.946	0.4438	-0.231
Mof_H 	H 	0.3623	0.9343	0.4336	0.08
Mof_H 	H 	0.4694	0.9995	0.4362	0.079
Mof_C 	C 	0.466	0.88	0.419	0.383
Mof_H 	H 	0.4343	0.8613	0.3876	-0.098
Mof_H 	H 	0.4537	0.8335	0.4356	-0.097
Mof_C 	C 	0.575	0.928	0.4203	-0.04
Mof_H 	H 	0.6135	0.894	0.4256	0.047
Mof_H 	H 	0.59	0.9506	0.3919	0.028
Mof_C 	C 	0.598	0.321	0.583	0.11
Mof_H 	H 	0.5492	0.3222	0.5596	-0.005
Mof_H 	H 	0.6615	0.3615	0.5794	0.006
Mof_C 	C 	0.569	0.336	0.631	-0.314
Mof_H 	H 	0.6251	0.3725	0.652	0.196
Mof_H 	H 	0.5171	0.3584	0.6304	0.119
Mof_C 	C 	0.533	0.249	0.6445	0.128
Mof_H 	H 	0.5079	0.2507	0.6745	-0.013
Mof_H 	H 	0.5864	0.2286	0.6463	-0.011
Mof_C 	C 	0.452	0.195	0.608	-0.334
Mof_H 	H 	0.4097	0.2244	0.5988	0.134
Mof_H 	H 	0.4119	0.1465	0.6198	0.121
Mof_C 	C 	0.5	0.172	0.5679	0.247
Mof_H 	H 	0.4993	0.1166	0.5666	-0.214
Mof_H 	H 	0.4689	0.1779	0.5389	-0.033
Mof_C 	C 	0.605	0.235	0.579	-0.239
Mof_H 	H 	0.6362	0.2275	0.6072	0.126
Mof_H 	H 	0.6446	0.2278	0.5539	0.105
Mof_C 	C 	0.474	0.494	0.715	-1.202
Mof_H 	H 	0.4297	0.447	0.6935	0.322
Mof_H 	H 	0.5174	0.5312	0.6966	0.247
Mof_C 	C 	0.414	0.537	0.74	-0.768
Mof_H 	H 	0.4584	0.5862	0.76	0.198
Mof_H 	H 	0.3749	0.5539	0.7183	0.217
Mof_C 	C 	0.347	0.481	0.77	0.012
Mof_H 	H 	0.2983	0.4349	0.7497	0.108
Mof_H 	H 	0.3117	0.5111	0.787	-0.003
Mof_C 	C 	0.406	0.452	0.802	-0.602
Mof_H 	H 	0.4506	0.4978	0.8237	0.194
Mof_H 	H 	0.3616	0.4143	0.8201	0.217
Mof_C 	C 	0.464	0.408	0.776	0.59
Mof_H 	H 	0.4191	0.3607	0.7547	-0.156
Mof_H 	H 	0.5008	0.3878	0.7972	-0.143
Mof_C 	C 	0.534	0.466	0.749	-1.437
Mof_H 	H 	0.5781	0.5135	0.7699	0.51
Mof_H 	H 	0.5728	0.4395	0.7326	0.61
_end
