data_functionalizedCrystal
_audit_creation_method	'EQeq! by Chris Wilmer'
_symmetry_space_group_name_H-M	'P1'
_symmetry_Int_Tables_number	1
_symmetry_cell_setting	triclinic
loop_
_symmetry_equiv_pos_as_xyz
  x,y,z
_cell_length_a	10.952
_cell_length_b	10.952
_cell_length_c	9.627
_cell_angle_alpha	90
_cell_angle_beta	90
_cell_angle_gamma	90
loop_
_atom_site_label
_atom_site_type_symbol
_atom_site_fract_x
_atom_site_fract_y
_atom_site_fract_z
_atom_site_charge
Mof_C 	C 	0.9527	0.8832	0.4186	0.084
Mof_H 	H 	0.0042	0.8154	0.3842	0.041
Mof_C 	C 	0.0473	0.1168	0.4186	-0.145
Mof_H 	H 	0.9958	0.1846	0.3842	-0.025
Mof_C 	C 	0.1168	0.9527	0.4186	0.224
Mof_H 	H 	0.1846	0.0042	0.3842	0.019
Mof_C 	C 	0.8832	0.0473	0.4186	-0.239
Mof_H 	H 	0.8154	0.9958	0.3842	0.032
Mof_C 	C 	0.0473	0.8832	0.5814	-0.243
Mof_H 	H 	0.9958	0.8154	0.6158	0.035
Mof_C 	C 	0.9527	0.1168	0.5814	0.226
Mof_H 	H 	0.0042	0.1846	0.6158	0.019
Mof_C 	C 	0.8832	0.9527	0.5814	0.085
Mof_H 	H 	0.8154	0.0042	0.6158	0.043
Mof_C 	C 	0.1168	0.0473	0.5814	-0.147
Mof_H 	H 	0.1846	0.9958	0.6158	-0.023
Mof_C 	C 	0.0473	0.1168	0.5814	-0.147
Mof_H 	H 	0.9958	0.1846	0.6158	-0.023
Mof_C 	C 	0.9527	0.8832	0.5814	0.085
Mof_H 	H 	0.0042	0.8154	0.6158	0.043
Mof_C 	C 	0.8832	0.0473	0.5814	-0.243
Mof_H 	H 	0.8154	0.9958	0.6158	0.035
Mof_C 	C 	0.1168	0.9527	0.5814	0.226
Mof_H 	H 	0.1846	0.0042	0.6158	0.019
Mof_C 	C 	0.9527	0.1168	0.4186	0.224
Mof_H 	H 	0.0042	0.1846	0.3842	0.019
Mof_C 	C 	0.0473	0.8832	0.4186	-0.239
Mof_H 	H 	0.9958	0.8154	0.3842	0.032
Mof_C 	C 	0.1168	0.0473	0.4186	-0.145
Mof_H 	H 	0.1846	0.9958	0.3842	-0.025
Mof_C 	C 	0.8832	0.9527	0.4186	0.085
Mof_H 	H 	0.8154	0.0042	0.3842	0.042
Mof_Zn	Zn	-8.68986e-34	0	0.1509	1.2
Mof_N 	N 	1.20461e-33	0	0.3655	-0.215
Mof_Zn	Zn	-2.66683e-33	0	0.8491	1.208
Mof_N 	N 	2.09118e-33	0	0.6345	-0.214
Mof_O 	O 	0.8174	0	0.117	-0.444
Mof_C 	C 	0.5643	-1.36632e-33	0.1251	-0.013
Mof_H 	H 	0.6073	-1.36632e-33	0.2109	0.046
Mof_O 	O 	0.1826	0	0.117	-0.459
Mof_C 	C 	0.4357	-1.36632e-33	0.1251	-0.009
Mof_H 	H 	0.3927	-1.36632e-33	0.2109	0.043
Mof_O 	O 	-5.07967e-33	0.8174	0.117	-0.444
Mof_C 	C 	-6.4193e-33	0.5643	0.1251	-0.013
Mof_H 	H 	2.0614e-33	0.6073	0.2109	0.046
Mof_O 	O 	-9.80713e-34	0.1826	0.117	-0.459
Mof_C 	C 	-9.54017e-34	0.4357	0.1251	-0.009
Mof_H 	H 	-6.71239e-34	0.3927	0.2109	0.043
Mof_O 	O 	0.1826	0	0.883	-0.414
Mof_C 	C 	0.4357	-5.46528e-33	0.8749	0.043
Mof_H 	H 	0.3927	-5.46528e-33	0.7891	0.035
Mof_O 	O 	0.8174	0	0.883	-0.401
Mof_C 	C 	0.5643	-5.46528e-33	0.8749	0.039
Mof_H 	H 	0.6073	-5.46528e-33	0.7891	0.038
Mof_O 	O 	-8.02038e-33	0.8174	0.883	-0.401
Mof_C 	C 	-8.04708e-33	0.5643	0.8749	0.039
Mof_H 	H 	-2.86458e-33	0.6073	0.7891	0.038
Mof_O 	O 	-8.02038e-33	0.1826	0.883	-0.414
Mof_C 	C 	-8.04708e-33	0.4357	0.8749	0.043
Mof_H 	H 	-2.86458e-33	0.3927	0.7891	0.035
Mof_C 	C 	0.7631	0	-0	0.313
Mof_C 	C 	0.6294	0	-0	-0.128
Mof_C 	C 	0.2369	0	-0	0.314
Mof_C 	C 	0.3706	0	-0	-0.135
Mof_C 	C 	5.46528e-33	0.7631	-0	0.313
Mof_C 	C 	-5.46528e-33	0.6294	-0	-0.128
Mof_C 	C 	-2.73264e-33	0.2369	-0	0.314
Mof_C 	C 	-5.46528e-33	0.3706	-0	-0.135
Mof_H 	H 	0.86945	0.86945	0.3842	-0.031
Mof_H 	H 	0.13055	0.13055	0.3842	0.118
Mof_H 	H 	0.13055	0.86945	0.3842	0.032
Mof_H 	H 	0.86945	0.13055	0.3842	0.032
Mof_H 	H 	0.13055	0.86945	0.6158	0.034
Mof_H 	H 	0.86945	0.13055	0.6158	0.034
Mof_H 	H 	0.86945	0.86945	0.6158	-0.03
Mof_H 	H 	0.13055	0.13055	0.6158	0.122
_end
