data_functionalizedCrystal
_audit_creation_method	'EQeq! by Chris Wilmer'
_symmetry_space_group_name_H-M	'P1'
_symmetry_Int_Tables_number	1
_symmetry_cell_setting	triclinic
loop_
_symmetry_equiv_pos_as_xyz
  x,y,z
_cell_length_a	10.292
_cell_length_b	34.381
_cell_length_c	36.424
_cell_angle_alpha	90
_cell_angle_beta	90
_cell_angle_gamma	90.86
loop_
_atom_site_label
_atom_site_type_symbol
_atom_site_fract_x
_atom_site_fract_y
_atom_site_fract_z
_atom_site_charge
Mof_Zn	Zn	0.54835	0.35828	0.6629	1.217
Mof_Zn	Zn	0.39647	0.27721	0.6668	1.221
Mof_Zn	Zn	0.81039	0.21969	0.17139	1.221
Mof_Zn	Zn	0.31039	0.71969	0.32861	1.221
Mof_Zn	Zn	0.68961	0.28031	0.67139	1.221
Mof_Zn	Zn	0.04609	0.80014	0.90631	1.219
Mof_Zn	Zn	0.04835	0.85828	0.8371	1.217
Mof_Zn	Zn	0.60353	0.72279	0.3332	1.221
Mof_Zn	Zn	0.45165	0.64172	0.3371	1.216
Mof_Zn	Zn	0.10353	0.22279	0.1668	1.22
Mof_Zn	Zn	0.95165	0.14172	0.1629	1.216
Mof_Zn	Zn	0.54609	0.30014	0.59369	1.218
Mof_Zn	Zn	0.45391	0.69986	0.40631	1.218
Mof_Zn	Zn	0.89647	0.77721	0.8332	1.22
Mof_Zn	Zn	0.18961	0.78031	0.82861	1.22
Mof_Zn	Zn	0.95391	0.19986	0.09369	1.218
Mof_H 	H 	0.7105	0.713	0.0942	0.051
Mof_H 	H 	0.6235	0.2917	0.9084	0.012
Mof_H 	H 	0.7149	0.7629	0.1019	0.015
Mof_H 	H 	0.7615	0.7425	0.4796	0.036
Mof_H 	H 	0.221	0.2615	0.4633	0.058
Mof_H 	H 	0.1175	0.3433	0.185	0.027
Mof_H 	H 	0.1648	0.7853	0.7112	0.034
Mof_H 	H 	0.7625	0.4689	0.2129	0.036
Mof_H 	H 	0.7794	0.5077	0.2888	0.043
Mof_H 	H 	0.2511	0.0703	0.2163	0.04
Mof_H 	H 	0.6429	0.2404	0.9007	0.052
Mof_H 	H 	0.5238	0.4599	0.5994	0.028
Mof_H 	H 	0.95	0.6671	0.3167	0.047
Mof_H 	H 	0.7352	0.4027	0.2261	0.068
Mof_H 	H 	0.3952	0.9942	0.7873	0.031
Mof_H 	H 	0.3571	0.7596	0.0993	0.052
Mof_H 	H 	0.8825	0.6567	0.815	0.027
Mof_H 	H 	0.8382	0.2283	0.3506	0.065
Mof_H 	H 	0.0156	0.8893	0.9875	0.025
Mof_H 	H 	0.6105	0.9662	0.2857	0.024
Mof_H 	H 	0.3598	0.9269	0.7807	0.038
Mof_H 	H 	0.6502	0.2418	0.0194	0.039
Mof_H 	H 	0.4844	0.6107	0.4875	0.025
Mof_H 	H 	0.1186	0.4083	0.2021	0.067
Mof_H 	H 	0.8791	0.4753	0.7535	0.051
Mof_H 	H 	0.2206	0.4923	0.7112	0.043
Mof_H 	H 	0.2851	0.2371	0.8981	0.015
Mof_H 	H 	0.4076	0.787	0.0416	0.032
Mof_H 	H 	0.8598	0.4269	0.7193	0.038
Mof_H 	H 	0.9076	0.287	0.4584	0.032
Mof_H 	H 	0.1048	0.5058	0.2873	0.031
Mof_H 	H 	0.3799	0.7139	0.0305	0.063
Mof_H 	H 	0.2385	0.2575	0.5204	0.036
Mof_H 	H 	0.2976	0.287	0.9728	0.026
Mof_H 	H 	0.779	0.7385	0.5367	0.058
Mof_H 	H 	0.7772	0.7672	0.7171	0.034
Mof_H 	H 	0.05	0.3329	0.6833	0.047
Mof_H 	H 	0.5092	0.5148	0.5596	0.065
Mof_H 	H 	0.721	0.7615	0.0367	0.058
Mof_H 	H 	0.7686	0.163	0.7067	0.031
Mof_H 	H 	0.2695	0.2606	0.8463	0.065
Mof_H 	H 	0.1201	0.7861	0.5305	0.063
Mof_H 	H 	0.7851	0.7371	0.6019	0.014
Mof_H 	H 	0.3825	0.1567	0.685	0.027
Mof_H 	H 	0.619	0.9494	0.2435	0.041
Mof_H 	H 	0.2794	0.0077	0.2112	0.044
Mof_H 	H 	0.2228	0.2328	0.2829	0.034
Mof_H 	H 	0.4908	0.4852	0.4404	0.065
Mof_H 	H 	0.1209	0.5247	0.2465	0.051
Mof_H 	H 	0.2615	0.2425	0.0204	0.036
Mof_H 	H 	0.2305	0.2394	0.3463	0.065
Mof_H 	H 	0.2489	0.4297	0.7163	0.039
Mof_H 	H 	0.7305	0.7394	0.1537	0.065
Mof_H 	H 	0.8952	0.4942	0.7127	0.031
Mof_H 	H 	0.7511	0.5703	0.2837	0.039
Mof_H 	H 	0.8895	0.5338	0.7857	0.023
Mof_H 	H 	0.8799	0.2139	0.4695	0.063
Mof_H 	H 	0.7175	0.056	0.772	0.035
Mof_H 	H 	0.3765	0.7083	0.0916	0.012
Mof_H 	H 	0.7648	0.0973	0.7261	0.068
Mof_H 	H 	0.3895	0.0338	0.7143	0.024
Mof_H 	H 	0.6186	0.9083	0.2979	0.068
Mof_H 	H 	0.7414	0.97	0.7399	0.046
Mof_H 	H 	0.2352	0.9027	0.2739	0.068
Mof_H 	H 	0.45	0.1671	0.1833	0.047
Mof_H 	H 	0.1618	0.7717	0.6494	0.065
Mof_H 	H 	0.6648	0.2853	0.7888	0.033
Mof_H 	H 	0.1402	0.5731	0.2807	0.038
Mof_H 	H 	0.7206	0.9923	0.7888	0.044
Mof_H 	H 	0.0092	0.0148	0.9404	0.065
Mof_H 	H 	0.6201	0.2861	0.9695	0.063
Mof_H 	H 	0.1105	0.4662	0.2143	0.023
Mof_H 	H 	0.7228	0.7328	0.2171	0.033
Mof_H 	H 	0.3814	0.0917	0.7021	0.068
Mof_H 	H 	0.2024	0.213	0.4728	0.026
Mof_H 	H 	0.5388	0.7657	0.8839	0.046
Mof_H 	H 	0.279	0.2385	0.9633	0.058
Mof_H 	H 	0.6402	0.0731	0.2193	0.038
Mof_H 	H 	0.0924	0.713	0.5416	0.032
Mof_H 	H 	0.9941	0.0558	0.9731	0.067
Mof_H 	H 	0.8571	0.2596	0.4007	0.053
Mof_H 	H 	0.7314	0.337	0.2067	0.03
Mof_H 	H 	0.4941	0.5558	0.5269	0.067
Mof_H 	H 	0.7385	0.7575	0.9796	0.036
Mof_H 	H 	0.8352	0.2147	0.2888	0.034
Mof_H 	H 	0.8814	0.5917	0.7979	0.067
Mof_H 	H 	0.0059	0.9442	0.0269	0.067
Mof_H 	H 	0.3352	0.7147	0.2112	0.033
Mof_H 	H 	0.7024	0.713	0.0272	0.026
Mof_H 	H 	0.3791	0.9753	0.7465	0.051
Mof_H 	H 	0.7825	0.444	0.272	0.035
Mof_H 	H 	0.2586	0.03	0.2601	0.046
Mof_H 	H 	0.2625	0.9689	0.2871	0.036
Mof_H 	H 	0.1429	0.7404	0.5993	0.053
Mof_H 	H 	0.2648	0.5973	0.7739	0.068
Mof_H 	H 	0.4762	0.5401	0.4006	0.028
Mof_H 	H 	0.1235	0.7917	0.5916	0.012
Mof_H 	H 	0.7695	0.7606	0.6537	0.065
Mof_H 	H 	0.381	0.0506	0.7565	0.041
Mof_H 	H 	0.8765	0.2083	0.4084	0.012
Mof_H 	H 	0.1502	0.7418	0.4806	0.039
Mof_H 	H 	0.7586	0.53	0.2399	0.046
Mof_H 	H 	0.6175	0.8433	0.315	0.027
Mof_H 	H 	0.5924	0.213	0.9584	0.032
Mof_H 	H 	0.2772	0.2672	0.7829	0.033
Mof_H 	H 	0.2686	0.663	0.7933	0.03
Mof_H 	H 	0.3382	0.7283	0.1494	0.065
Mof_H 	H 	0.3498	0.7582	0.9806	0.039
Mof_H 	H 	0.881	0.5506	0.7435	0.041
Mof_H 	H 	0.9762	0.0401	0.0994	0.027
Mof_H 	H 	0.8498	0.2582	0.5194	0.039
Mof_H 	H 	0.6048	0.0058	0.2127	0.031
Mof_H 	H 	0.2895	0.287	0.9058	0.051
Mof_H 	H 	0.2375	0.5311	0.7871	0.036
Mof_H 	H 	0.119	0.4494	0.2565	0.041
Mof_H 	H 	0.2175	0.556	0.728	0.035
Mof_H 	H 	0.7489	0.9297	0.7837	0.04
Mof_H 	H 	0.55	0.8329	0.8167	0.047
Mof_H 	H 	0.9844	0.1107	0.0125	0.025
Mof_H 	H 	0.9612	0.7343	0.3839	0.046
Mof_H 	H 	0.7895	0.787	0.5942	0.051
Mof_H 	H 	0.4612	0.2343	0.1161	0.046
Mof_H 	H 	0.7976	0.787	0.5272	0.026
Mof_H 	H 	0.2825	0.944	0.228	0.035
Mof_H 	H 	0.2149	0.2629	0.3981	0.014
Mof_H 	H 	0.2414	0.47	0.7601	0.046
Mof_H 	H 	0.5156	0.3893	0.5125	0.025
Mof_H 	H 	0.0388	0.2657	0.6161	0.046
Mof_H 	H 	0.0238	0.9599	0.9006	0.027
Mof_H 	H 	0.9908	0.9852	0.0596	0.065
Mof_H 	H 	0.7375	0.0311	0.7129	0.036
Mof_H 	H 	0.2105	0.213	0.4058	0.051
Mof_H 	H 	0.5059	0.4442	0.4731	0.067
Mof_H 	H 	0.6618	0.2717	0.8506	0.065
Mof_H 	H 	0.6209	0.0247	0.2535	0.051
Mof_H 	H 	0.2314	0.837	0.2933	0.031
Mof_C 	C 	0.0543	0.7768	0.5805	0.042
Mof_C 	C 	0.457	0.0349	0.7545	-0.049
Mof_C 	C 	0.938	0.37709	0.69926	-0.104
Mof_C 	C 	0.9811	0.7815	0.7625	0.383
Mof_C 	C 	0.061	0.7431	0.5872	-0.085
Mof_C 	C 	0.4712	0.2768	0.7788	-0.112
Mof_C 	C 	0.0447	0.2542	0.51422	-0.041
Mof_C 	C 	0.0507	0.35908	0.69164	0.041
Mof_C 	C 	0.5826	0.207	0.68	0.412
Mof_C 	C 	0.438	0.87709	0.80074	-0.105
Mof_C 	C 	0.0288	0.2232	0.2788	-0.111
Mof_C 	C 	0.8024	0.27087	0.59069	0.366
Mof_C 	C 	0.5077	0.4825	0.5129	0.055
Mof_C 	C 	0.4171	0.7281	0.1629	-0.111
Mof_C 	C 	0.444	0.0664	0.22097	-0.035
Mof_C 	C 	0.4199	0.8346	0.3076	-0.133
Mof_C 	C 	0.9705	0.0809	0.0596	-0.143
Mof_C 	C 	0.5447	0.7542	0.98578	-0.041
Mof_C 	C 	0.8311	0.58361	0.28815	0.007
Mof_C 	C 	0.457	0.0008	0.7684	-0.016
Mof_C 	C 	0.0673	0.5896	0.7808	0.06
Mof_C 	C 	0.6492	0.7356	0.1656	-0.112
Mof_C 	C 	0.0845	0.7788	0.6997	0.039
Mof_C 	C 	0.8508	0.7644	0.6656	-0.112
Mof_C 	C 	0.959	0.2655	0.4503	-0.005
Mof_C 	C 	0.5507	0.85908	0.80836	0.042
Mof_C 	C 	0.2092	0.14024	0.18396	0.374
Mof_C 	C 	0.9457	0.2232	0.4195	0.042
Mof_C 	C 	0.062	0.62291	0.30074	-0.104
Mof_C 	C 	0.5396	0.8553	0.3073	0.053
Mof_C 	C 	0.14	0.2554	0.452	-0.094
Mof_C 	C 	0.9252	0.26387	0.57082	-0.111
Mof_C 	C 	0.4351	0.95	0.265	-0.01
Mof_C 	C 	0.4553	0.2458	0.01422	-0.041
Mof_C 	C 	0.6697	0.87963	0.80385	-0.104
Mof_C 	C 	0.54	0.7641	0.90996	0.046
Mof_C 	C 	0.4811	0.2815	0.7375	0.381
Mof_C 	C 	0.4174	0.793	0.32	0.412
Mof_C 	C 	0.3553	0.2692	0.7967	0.043
Mof_C 	C 	0.5435	0.7496	0.0253	0.054
Mof_C 	C 	0.96	0.7359	0.40996	0.045
Mof_C 	C 	0.9656	0.5245	0.7735	0.005
Mof_C 	C 	0.8303	0.62037	0.30385	-0.104
Mof_C 	C 	0.429	0.75866	0.96714	0.011
Mof_C 	C 	0.9174	0.293	0.18	0.41
Mof_C 	C 	0.4819	0.5853	0.4773	0.058
Mof_C 	C 	0.561	0.2431	0.9128	-0.083
Mof_C 	C 	0.929	0.25866	0.53286	0.01
Mof_C 	C 	0.0593	0.4737	0.7369	0.049
Mof_C 	C 	0.0829	0.7719	0.6629	-0.113
Mof_C 	C 	0.3311	0.08361	0.21185	0.007
Mof_C 	C 	0.0385	0.2394	0.3968	-0.005
Mof_C 	C 	0.3482	0.9991	0.2269	-0.045
Mof_C 	C 	0.333	0.976	0.271	-0.023
Mof_C 	C 	0.5649	0.05	0.735	-0.01
Mof_C 	C 	0.1492	0.2356	0.3344	-0.112
Mof_C 	C 	0.043	0.4992	0.2684	-0.015
Mof_C 	C 	0.041	0.7345	0.5497	-0.005
Mof_C 	C 	0.4155	0.7212	0.1997	0.041
Mof_C 	C 	0.3024	0.77087	0.90931	0.366
Mof_C 	C 	0.071	0.74134	0.46714	0.01
Mof_C 	C 	0.1689	0.41639	0.71185	0.007
Mof_C 	C 	0.0098	0.9477	0.001	-0.119
Mof_C 	C 	0.439	0.7569	0.0872	-0.083
Mof_C 	C 	0.459	0.7655	0.0497	-0.005
Mof_C 	C 	0.0801	0.6654	0.8076	-0.135
Mof_C 	C 	0.5534	0.2731	0.9555	-0.101
Mof_C 	C 	0.944	0.5664	0.27903	-0.036
Mof_C 	C 	0.5098	0.4477	0.499	-0.119
Mof_C 	C 	0.1518	0.5009	0.7269	-0.045
Mof_C 	C 	0.9819	0.0853	0.0227	0.057
Mof_C 	C 	0.4628	0.9877	0.7439	-0.072
Mof_C 	C 	0.4615	0.2606	0.8968	-0.007
Mof_C 	C 	0.46	0.2359	0.09004	0.046
Mof_C 	C 	0.5344	0.9755	0.2735	0.003
Mof_C 	C 	0.0344	0.4755	0.2265	0.005
Mof_C 	C 	0.556	0.9336	0.77903	-0.035
Mof_C 	C 	0.0355	0.2351	0.3549	0.057
Mof_C 	C 	0.5181	0.4147	0.5227	0.058
Mof_C 	C 	0.3126	0.8904	0.2816	-0.117
Mof_C 	C 	0.5124	0.4891	0.55	-0.114
Mof_C 	C 	0.86	0.7735	0.5415	0.004
Mof_C 	C 	0.9712	0.7768	0.7212	-0.111
Mof_C 	C 	0.043	0.4651	0.2545	-0.049
Mof_C 	C 	0.9553	0.7458	0.48578	-0.041
Mof_C 	C 	0.9493	0.64092	0.30836	0.041
Mof_C 	C 	0.5295	0.4191	0.5596	-0.143
Mof_C 	C 	0.0606	0.58556	0.28602	0.007
Mof_C 	C 	0.5385	0.7394	0.1032	-0.007
Mof_C 	C 	0.168	0.4865	0.7566	-0.053
Mof_C 	C 	0.8415	0.74217	0.46665	0.012
Mof_C 	C 	0.6558	0.0379	0.7616	-0.025
Mof_C 	C 	0.0406	0.3933	0.2044	-0.117
Mof_C 	C 	0.3105	0.8516	0.2942	0.054
Mof_C 	C 	0.7157	0.73459	0.40689	0.396
Mof_C 	C 	0.9615	0.7606	0.6032	-0.005
Mof_C 	C 	0.4778	0.5438	0.4264	0.054
Mof_C 	C 	0.541	0.2345	0.9503	-0.005
Mof_C 	C 	0.1585	0.25783	0.53335	0.012
Mof_C 	C 	0.4565	0.2504	0.9747	0.054
Mof_C 	C 	0.8482	0.4991	0.2731	-0.045
Mof_C 	C 	0.2843	0.26541	0.59311	0.396
Mof_C 	C 	0.4923	0.5175	0.4871	0.055
Mof_C 	C 	0.8442	0.4621	0.2616	-0.025
Mof_C 	C 	0.0181	0.9147	0.9773	0.057
Mof_C 	C 	0.5406	0.8933	0.2956	-0.119
Mof_C 	C 	0.5288	0.7232	0.2212	-0.112
Mof_C 	C 	0.0295	0.9191	0.9404	-0.143
Mof_C 	C 	0.562	0.12291	0.19926	-0.105
Mof_C 	C 	0.939	0.2569	0.4128	-0.085
Mof_C 	C 	0.0396	0.3553	0.1927	0.055
Mof_C 	C 	0.5845	0.2788	0.8003	0.041
Mof_C 	C 	0.6601	0.762	0.92874	-0.109
Mof_C 	C 	0.9466	0.2269	0.4555	-0.102
Mof_C 	C 	0.0077	0.9825	0.9871	0.055
Mof_C 	C 	0.833	0.476	0.229	-0.023
Mof_C 	C 	0.4876	0.5109	0.45	-0.114
Mof_C 	C 	0.36	0.2735	0.9585	0.003
Mof_C 	C 	0.1447	0.2308	0.2967	0.043
Mof_C 	C 	0.9199	0.3346	0.1924	-0.135
Mof_C 	C 	0.5673	0.0896	0.7192	0.062
Mof_C 	C 	0.6585	0.75783	0.96665	0.012
Mof_C 	C 	0.5748	0.23613	0.07082	-0.112
Mof_C 	C 	0.6874	0.1096	0.7184	-0.117
Mof_C 	C 	0.639	0.7247	0.082	-0.078
Mof_C 	C 	0.571	0.24134	0.03286	0.011
Mof_C 	C 	0.9594	0.6067	0.7956	-0.117
Mof_C 	C 	0.6976	0.22913	0.09069	0.366
Mof_C 	C 	0.0649	0.55	0.765	-0.012
Mof_C 	C 	0.5829	0.2719	0.8371	-0.111
Mof_C 	C 	0.4407	0.0263	0.2369	0.051
Mof_C 	C 	0.6689	0.91639	0.78815	0.007
Mof_C 	C 	0.9407	0.5263	0.2631	0.049
Mof_C 	C 	0.9171	0.2281	0.3371	-0.113
Mof_C 	C 	0.4327	0.9104	0.2808	0.062
Mof_C 	C 	0.543	0.9992	0.2316	-0.016
Mof_C 	C 	0.543	0.9651	0.2455	-0.049
Mof_C 	C 	0.1601	0.262	0.57126	-0.109
Mof_C 	C 	0.5801	0.1654	0.6924	-0.133
Mof_C 	C 	0.0404	0.8842	0.915	0.45
Mof_C 	C 	0.0124	0.9891	0.95	-0.114
Mof_C 	C 	0.7092	0.64024	0.31604	0.374
Mof_C 	C 	0.139	0.2247	0.418	-0.078
Mof_C 	C 	0.3442	0.9621	0.2384	-0.025
Mof_C 	C 	0.8399	0.738	0.42874	-0.109
Mof_C 	C 	0.4594	0.1067	0.7044	-0.119
Mof_C 	C 	0.1424	0.2539	0.4121	0.031
Mof_C 	C 	0.3303	0.12037	0.19615	-0.104
Mof_C 	C 	0.9351	0.45	0.235	-0.012
Mof_C 	C 	0.7843	0.76541	0.90689	0.396
Mof_C 	C 	0.0748	0.73613	0.42918	-0.111
Mof_C 	C 	0.1697	0.37963	0.69615	-0.104
Mof_C 	C 	0.0189	0.2185	0.2375	0.383
Mof_C 	C 	0.4656	0.0245	0.7265	0.003
Mof_C 	C 	0.332	0.0135	0.2566	-0.054
Mof_C 	C 	0.9155	0.2212	0.3003	0.039
Mof_C 	C 	0.4394	0.91444	0.78602	0.006
Mof_C 	C 	0.19	0.64406	0.30898	0.39
Mof_C 	C 	0.14	0.2265	0.4585	0.004
Mof_C 	C 	0.4604	0.1447	0.6927	0.053
Mof_C 	C 	0.4457	0.7232	0.0805	0.042
Mof_C 	C 	0.6895	0.1484	0.7058	0.054
Mof_C 	C 	0.3576	0.2461	0.9121	0.031
Mof_C 	C 	0.668	0.9865	0.7434	-0.054
Mof_C 	C 	0.9596	0.1158	0.085	0.45
Mof_C 	C 	0.5606	0.08556	0.21398	0.006
Mof_C 	C 	0.4902	0.5523	0.501	-0.119
Mof_C 	C 	0.0372	0.5123	0.2439	-0.071
Mof_C 	C 	0.31	0.85594	0.80898	0.391
Mof_C 	C 	0.9778	0.0438	0.0736	0.054
Mof_C 	C 	0.64	0.7265	0.0415	0.003
Mof_C 	C 	0.832	0.5135	0.2434	-0.053
Mof_C 	C 	0.361	0.2753	0.918	-0.078
Mof_C 	C 	0.0435	0.2496	0.4747	0.055
Mof_C 	C 	0.86	0.7446	0.548	-0.094
Mof_C 	C 	0.4705	0.5809	0.4404	-0.143
Mof_C 	C 	0.9876	0.0109	0.05	-0.114
Mof_C 	C 	0.5593	0.9737	0.7631	0.051
Mof_C 	C 	0.4252	0.76387	0.92918	-0.112
Mof_C 	C 	0.2157	0.23459	0.09311	0.396
Mof_C 	C 	0.69	0.14406	0.19102	0.391
Mof_C 	C 	0.9327	0.4104	0.2192	0.06
Mof_C 	C 	0.36	0.2446	0.952	-0.094
Mof_C 	C 	0.9628	0.4877	0.7561	-0.071
Mof_C 	C 	0.64	0.7554	0.048	-0.094
Mof_C 	C 	0.8105	0.3516	0.2058	0.054
Mof_C 	C 	0.957	0.5008	0.7316	-0.015
Mof_C 	C 	0.6518	0.0009	0.7731	-0.045
Mof_C 	C 	0.8553	0.7692	0.7033	0.043
Mof_C 	C 	0.056	0.4336	0.72097	-0.036
Mof_C 	C 	0.5543	0.2768	0.9195	0.042
Mof_C 	C 	0.9923	0.0175	0.0129	0.055
Mof_C 	C 	0.4645	0.2649	0.8549	0.055
Mof_C 	C 	0.6424	0.7539	0.0879	0.031
Mof_C 	C 	0.3508	0.2644	0.8344	-0.112
Mof_C 	C 	0.957	0.5349	0.7455	-0.049
Mof_C 	C 	0.667	0.024	0.729	-0.023
Mof_C 	C 	0.5355	0.7351	0.1451	0.055
Mof_C 	C 	0.1976	0.72913	0.40931	0.366
Mof_C 	C 	0.9394	0.41444	0.71398	0.007
Mof_C 	C 	0.5372	0.0123	0.2561	-0.072
Mof_C 	C 	0.861	0.7753	0.582	-0.078
Mof_C 	C 	0.04	0.2641	0.59004	0.045
Mof_C 	C 	0.1558	0.5379	0.7384	-0.025
Mof_C 	C 	0.0826	0.707	0.82	0.41
Mof_C 	C 	0.9565	0.7504	0.5253	0.055
Mof_C 	C 	0.4596	0.6158	0.415	0.449
Mof_C 	C 	0.5189	0.7185	0.2625	0.381
Mof_C 	C 	0.9645	0.7649	0.6451	0.057
Mof_C 	C 	0.1895	0.6484	0.7942	0.054
Mof_C 	C 	0.1874	0.6096	0.7816	-0.117
Mof_C 	C 	0.7908	0.85976	0.81604	0.374
Mof_C 	C 	0.3399	0.238	0.07126	-0.109
Mof_C 	C 	0.5404	0.3842	0.585	0.449
Mof_C 	C 	0.81	0.35594	0.69102	0.39
Mof_C 	C 	0.167	0.524	0.771	-0.023
Mof_C 	C 	0.2908	0.35976	0.68396	0.374
Mof_C 	C 	0.4493	0.14092	0.19164	0.042
Mof_C 	C 	0.4466	0.7269	0.0445	-0.101
Mof_C 	C 	0.0534	0.7731	0.5445	-0.102
Mof_C 	C 	0.6447	0.7308	0.2033	0.043
Mof_C 	C 	0.9902	0.0523	0.999	-0.119
Mof_C 	C 	0.9604	0.6447	0.8073	0.055
Mof_C 	C 	0.8576	0.7461	0.5879	0.031
Mof_C 	C 	0.0222	0.9562	0.9264	0.054
Mof_C 	C 	0.8126	0.3904	0.2184	-0.117
Mof_C 	C 	0.5222	0.4562	0.5736	0.054
Mof_C 	C 	0.3415	0.24217	0.03335	0.012
Mof_O 	O 	0.9134	0.2079	0.22514	-0.465
Mof_O 	O 	0.2192	0.17193	0.1683	-0.463
Mof_O 	O 	0.8843	0.77445	0.92455	-0.485
Mof_O 	O 	0.6216	0.72685	0.27983	-0.467
Mof_O 	O 	0.3196	0.81929	0.8123	-0.473
Mof_O 	O 	0.4532	0.6077	0.38244	-0.505
Mof_O 	O 	0.0866	0.7921	0.77486	-0.465
Mof_O 	O 	0.6014	0.6217	0.31111	-0.47
Mof_O 	O 	0.0149	0.27917	0.16606	-0.474
Mof_O 	O 	0.9613	0.14779	0.07032	-0.513
Mof_O 	O 	0.7241	0.74002	0.37289	-0.467
Mof_O 	O 	0.5149	0.77917	0.33394	-0.477
Mof_O 	O 	0.3986	0.3783	0.68889	-0.47
Mof_O 	O 	0.9851	0.72083	0.83394	-0.474
Mof_O 	O 	0.0468	0.8923	0.88244	-0.506
Mof_O 	O 	0.3144	0.77387	0.31462	-0.479
Mof_O 	O 	0.3784	0.27315	0.72017	-0.467
Mof_O 	O 	0.6157	0.72555	0.42455	-0.487
Mof_O 	O 	0.3006	0.72391	0.42743	-0.478
Mof_O 	O 	0.7808	0.82807	0.8317	-0.463
Mof_O 	O 	0.1216	0.22685	0.22017	-0.467
Mof_O 	O 	0.1157	0.22555	0.07545	-0.485
Mof_O 	O 	0.8144	0.27387	0.18538	-0.478
Mof_O 	O 	0.7759	0.75998	0.87289	-0.467
Mof_O 	O 	0.1014	0.1217	0.18889	-0.469
Mof_O 	O 	0.1804	0.68071	0.3123	-0.473
Mof_O 	O 	0.0457	0.80575	0.85437	-0.936
Mof_O 	O 	0.4613	0.64779	0.42968	-0.512
Mof_O 	O 	0.5866	0.2921	0.72514	-0.463
Mof_O 	O 	0.6953	0.23116	0.12598	-0.449
Mof_O 	O 	0.1953	0.73116	0.37402	-0.448
Mof_O 	O 	0.2759	0.25998	0.62711	-0.467
Mof_O 	O 	0.6856	0.22613	0.68538	-0.479
Mof_O 	O 	0.9543	0.19425	0.14563	-0.936
Mof_O 	O 	0.8784	0.77315	0.77983	-0.467
Mof_O 	O 	0.2808	0.32807	0.6683	-0.463
Mof_O 	O 	0.5468	0.3923	0.61756	-0.505
Mof_O 	O 	0.7097	0.375	0.68748	-0.492
Mof_O 	O 	0.3843	0.27445	0.57545	-0.487
Mof_O 	O 	0.9532	0.1077	0.11756	-0.506
Mof_O 	O 	0.5457	0.30575	0.64563	-0.935
Mof_O 	O 	0.4851	0.22083	0.66606	-0.477
Mof_O 	O 	0.8196	0.31929	0.6877	-0.473
Mof_O 	O 	0.4134	0.7079	0.27486	-0.463
Mof_O 	O 	0.8047	0.26884	0.62598	-0.448
Mof_O 	O 	0.6804	0.18071	0.1877	-0.473
Mof_O 	O 	0.7903	0.125	0.18748	-0.492
Mof_O 	O 	0.2097	0.875	0.81252	-0.492
Mof_O 	O 	0.1856	0.72613	0.81462	-0.478
Mof_O 	O 	0.8986	0.8783	0.81111	-0.469
Mof_O 	O 	0.3047	0.76884	0.87402	-0.449
Mof_O 	O 	0.1994	0.77609	0.92743	-0.478
Mof_O 	O 	0.5387	0.35221	0.57032	-0.512
Mof_O 	O 	0.8006	0.22391	0.07257	-0.478
Mof_O 	O 	0.6994	0.27609	0.57257	-0.478
Mof_O 	O 	0.4543	0.69425	0.35437	-0.935
Mof_O 	O 	0.7192	0.67193	0.3317	-0.463
Mof_O 	O 	0.0387	0.85221	0.92968	-0.513
Mof_O 	O 	0.2241	0.24002	0.12711	-0.467
Mof_O 	O 	0.2903	0.625	0.31252	-0.492
_end
