data_functionalizedCrystal
_audit_creation_method	'EQeq! by Chris Wilmer'
_symmetry_space_group_name_H-M	'P1'
_symmetry_Int_Tables_number	1
_symmetry_cell_setting	triclinic
loop_
_symmetry_equiv_pos_as_xyz
  x,y,z
_cell_length_a	17.712
_cell_length_b	17.712
_cell_length_c	17.712
_cell_angle_alpha	90
_cell_angle_beta	90
_cell_angle_gamma	90
loop_
_atom_site_label
_atom_site_type_symbol
_atom_site_fract_x
_atom_site_fract_y
_atom_site_fract_z
_atom_site_charge
Mof_C 	C 	0.041	0.029	0.107	-0.07
Mof_C 	C 	0.031	0.95	0.1026	0.146
Mof_C 	C 	0.953	0.936	0.088	0.342
Mof_C 	C 	0.9159	0.007	0.083	0.106
Mof_C 	C 	0.971	0.064	0.095	0.143
Mof_C 	C 	0.115	0.069	0.122	0.005
Mof_H 	H 	0.1073	0.1234	0.122	0.083
Mof_H 	H 	0.1517	0.0555	0.0822	-0.083
Mof_H 	H 	0.1353	0.0528	0.171	-0.194
Mof_H 	H 	0.1556	0.0311	0.1281	-0.002
Mof_H 	H 	0.1112	0.0989	0.1679	0.18
Mof_H 	H 	0.1276	0.1016	0.0791	0.106
Mof_C 	C 	0.091	0.89	0.112	-0.156
Mof_H 	H 	0.1396	0.9147	0.1216	0.606
Mof_H 	H 	0.0943	0.86	0.0657	-0.672
Mof_H 	H 	0.078	0.8574	0.1545	0.638
Mof_H 	H 	0.0683	0.84	0.1062	0.587
Mof_H 	H 	0.1136	0.8947	0.1622	-0.107
Mof_H 	H 	0.1299	0.8974	0.0734	0.09
Mof_C 	C 	0.916	0.86	0.079	-0.039
Mof_H 	H 	0.9544	0.8202	0.0846	-1.115
Mof_H 	H 	0.8934	0.8561	0.0285	-0.296
Mof_H 	H 	0.877	0.8534	0.1173	-1.671
Mof_H 	H 	0.8622	0.8663	0.069	0.518
Mof_H 	H 	0.9232	0.8304	0.1251	-0.065
Mof_H 	H 	0.9396	0.833	0.0363	0.207
Mof_C 	C 	0.8329	0.019	0.068	0.658
Mof_H 	H 	0.8078	0.9704	0.0621	0.164
Mof_H 	H 	0.8266	0.0491	0.022	-0.13
Mof_H 	H 	0.8103	0.0465	0.1108	-0.026
Mof_H 	H 	0.822	0.0736	0.0678	0.298
Mof_H 	H 	0.8032	0.9949	0.1079	-0.173
Mof_H 	H 	0.8195	0.9975	0.0191	-0.197
Mof_C 	C 	0.956	0.148	0.095	-0.513
Mof_H 	H 	0.0033	0.1754	0.1044	0.304
Mof_H 	H 	0.9194	0.1609	0.1344	0.117
Mof_H 	H 	0.9357	0.1635	0.0456	0.457
Mof_H 	H 	0.9023	0.1578	0.0852	0.392
Mof_H 	H 	0.9863	0.1724	0.0552	-0.079
Mof_H 	H 	0.9699	0.1697	0.144	0.304
Mof_C 	C 	0.959	0.971	0.107	-0.249
Mof_C 	C 	0.969	0.05	0.1026	-0.019
Mof_C 	C 	0.047	0.064	0.088	0.062
Mof_C 	C 	0.0841	0.993	0.083	-0.407
Mof_C 	C 	0.029	0.936	0.095	0.016
Mof_C 	C 	0.885	0.931	0.122	0.008
Mof_H 	H 	0.8927	0.8766	0.122	-0.196
Mof_H 	H 	0.8483	0.9445	0.0822	0.01
Mof_H 	H 	0.8647	0.9472	0.171	1.031
Mof_H 	H 	0.8444	0.9689	0.1281	-1.005
Mof_H 	H 	0.8888	0.9011	0.1679	-0.566
Mof_H 	H 	0.8724	0.8984	0.0791	-0.078
Mof_C 	C 	0.909	0.11	0.112	0.512
Mof_H 	H 	0.8604	0.0853	0.1216	-0.493
Mof_H 	H 	0.9057	0.14	0.0657	-0.171
Mof_H 	H 	0.922	0.1426	0.1545	-0.711
Mof_H 	H 	0.9317	0.16	0.1062	-0.241
Mof_H 	H 	0.8864	0.1053	0.1622	0.095
Mof_H 	H 	0.8701	0.1026	0.0734	-0.075
Mof_C 	C 	0.084	0.14	0.079	0.026
Mof_H 	H 	0.0456	0.1798	0.0846	0.167
Mof_H 	H 	0.1066	0.1439	0.0285	0.097
Mof_H 	H 	0.123	0.1466	0.1173	-0.342
Mof_H 	H 	0.1378	0.1337	0.069	-0.16
Mof_H 	H 	0.0768	0.1696	0.1251	0.072
Mof_H 	H 	0.0604	0.167	0.0363	0.121
Mof_C 	C 	0.1671	0.981	0.068	0.143
Mof_H 	H 	0.1922	0.0296	0.0621	-0.421
Mof_H 	H 	0.1734	0.9509	0.022	-0.206
Mof_H 	H 	0.1897	0.9535	0.1108	0.772
Mof_H 	H 	0.178	0.9264	0.0678	-0.56
Mof_H 	H 	0.1968	0.0051	0.1079	-0.147
Mof_H 	H 	0.1805	0.0025	0.0191	0.219
Mof_C 	C 	0.044	0.852	0.095	0.253
Mof_H 	H 	0.9967	0.8246	0.1044	-0.003
Mof_H 	H 	0.0806	0.8391	0.1344	-0.453
Mof_H 	H 	0.0643	0.8365	0.0456	-0.212
Mof_H 	H 	0.0977	0.8422	0.0852	0.842
Mof_H 	H 	0.0137	0.8276	0.0552	0.089
Mof_H 	H 	0.0301	0.8303	0.144	0.151
Mof_C 	C 	0.959	0.029	0.893	-0.223
Mof_C 	C 	0.969	0.95	0.8974	-0.027
Mof_C 	C 	0.047	0.936	0.912	-0.25
Mof_C 	C 	0.0841	0.007	0.917	0.1
Mof_C 	C 	0.029	0.064	0.905	-0.116
Mof_C 	C 	0.885	0.069	0.878	-0.026
Mof_H 	H 	0.8927	0.1234	0.878	0.979
Mof_H 	H 	0.8483	0.0555	0.9178	-0.194
Mof_H 	H 	0.8647	0.0528	0.829	-0.138
Mof_H 	H 	0.8444	0.0311	0.8719	0.407
Mof_H 	H 	0.8888	0.0989	0.8321	-0.23
Mof_H 	H 	0.8724	0.1016	0.9209	-0.471
Mof_C 	C 	0.909	0.89	0.888	-0.076
Mof_H 	H 	0.8604	0.9147	0.8784	0.101
Mof_H 	H 	0.9057	0.86	0.9343	0.117
Mof_H 	H 	0.922	0.8574	0.8455	-0.135
Mof_H 	H 	0.9317	0.84	0.8938	0.18
Mof_H 	H 	0.8864	0.8947	0.8378	-0.073
Mof_H 	H 	0.8701	0.8974	0.9266	-0.15
Mof_C 	C 	0.084	0.86	0.921	0.109
Mof_H 	H 	0.0456	0.8202	0.9154	0.443
Mof_H 	H 	0.1066	0.8561	0.9715	1.046
Mof_H 	H 	0.123	0.8534	0.8827	1.032
Mof_H 	H 	0.1378	0.8663	0.931	-1.042
Mof_H 	H 	0.0768	0.8304	0.8749	-0.442
Mof_H 	H 	0.0604	0.833	0.9637	-0.374
Mof_C 	C 	0.1671	0.019	0.932	-0.208
Mof_H 	H 	0.1922	0.9704	0.9379	0.084
Mof_H 	H 	0.1734	0.0491	0.978	0.242
Mof_H 	H 	0.1897	0.0465	0.8892	-0.625
Mof_H 	H 	0.178	0.0736	0.9322	0.33
Mof_H 	H 	0.1968	0.9949	0.8921	0.144
Mof_H 	H 	0.1805	0.9975	0.9809	-0.152
Mof_C 	C 	0.044	0.148	0.905	0.275
Mof_H 	H 	0.9967	0.1754	0.8956	-0.418
Mof_H 	H 	0.0806	0.1609	0.8656	0.461
Mof_H 	H 	0.0643	0.1635	0.9544	-0.152
Mof_H 	H 	0.0977	0.1578	0.9148	-1.271
Mof_H 	H 	0.0137	0.1724	0.9448	-0.108
Mof_H 	H 	0.0301	0.1697	0.856	-0.438
Mof_C 	C 	0.041	0.971	0.893	0.22
Mof_C 	C 	0.031	0.05	0.8974	-0.123
Mof_C 	C 	0.953	0.064	0.912	0.065
Mof_C 	C 	0.9159	0.993	0.917	-0.046
Mof_C 	C 	0.971	0.936	0.905	0.011
Mof_C 	C 	0.115	0.931	0.878	0.178
Mof_H 	H 	0.1073	0.8766	0.878	-0.706
Mof_H 	H 	0.1517	0.9445	0.9178	0.015
Mof_H 	H 	0.1353	0.9472	0.829	-0.631
Mof_H 	H 	0.1556	0.9689	0.8719	0.539
Mof_H 	H 	0.1112	0.9011	0.8321	0.782
Mof_H 	H 	0.1276	0.8984	0.9209	0.223
Mof_C 	C 	0.091	0.11	0.888	0.067
Mof_H 	H 	0.1396	0.0853	0.8784	-0.07
Mof_H 	H 	0.0943	0.14	0.9343	0.501
Mof_H 	H 	0.078	0.1426	0.8455	0.357
Mof_H 	H 	0.0683	0.16	0.8938	-0.741
Mof_H 	H 	0.1136	0.1053	0.8378	0.128
Mof_H 	H 	0.1299	0.1026	0.9266	-0.253
Mof_C 	C 	0.916	0.14	0.921	0.168
Mof_H 	H 	0.9544	0.1798	0.9154	0.657
Mof_H 	H 	0.8934	0.1439	0.9715	-0.869
Mof_H 	H 	0.877	0.1466	0.8827	0.556
Mof_H 	H 	0.8622	0.1337	0.931	0.465
Mof_H 	H 	0.9232	0.1696	0.8749	0.477
Mof_H 	H 	0.9396	0.167	0.9637	0.135
Mof_C 	C 	0.8329	0.981	0.932	0.095
Mof_H 	H 	0.8078	0.0296	0.9379	-0.312
Mof_H 	H 	0.8266	0.9509	0.978	0.101
Mof_H 	H 	0.8103	0.9535	0.8892	-0.066
Mof_H 	H 	0.822	0.9264	0.9322	-0.126
Mof_H 	H 	0.8032	0.0051	0.8921	0.14
Mof_H 	H 	0.8195	0.0025	0.9809	0.123
Mof_C 	C 	0.956	0.852	0.905	0.288
Mof_H 	H 	0.0033	0.8246	0.8956	0.041
Mof_H 	H 	0.9194	0.8391	0.8656	-0.159
Mof_H 	H 	0.9357	0.8365	0.9544	-0.149
Mof_H 	H 	0.9023	0.8422	0.9148	0.209
Mof_H 	H 	0.9863	0.8276	0.9448	0.112
Mof_H 	H 	0.9699	0.8303	0.856	-0
Mof_C 	C 	0.107	0.041	0.029	-0.071
Mof_C 	C 	0.1026	0.031	0.95	0.145
Mof_C 	C 	0.088	0.953	0.936	0.341
Mof_C 	C 	0.083	0.9159	0.007	0.105
Mof_C 	C 	0.095	0.971	0.064	0.142
Mof_C 	C 	0.122	0.115	0.069	0.004
Mof_H 	H 	0.122	0.1073	0.1234	0.082
Mof_H 	H 	0.0822	0.1517	0.0555	-0.084
Mof_H 	H 	0.171	0.1353	0.0528	-0.195
Mof_H 	H 	0.1281	0.1556	0.0311	-0.003
Mof_H 	H 	0.1679	0.1112	0.0989	0.179
Mof_H 	H 	0.0791	0.1276	0.1016	0.105
Mof_C 	C 	0.112	0.091	0.89	-0.157
Mof_H 	H 	0.1216	0.1396	0.9147	0.605
Mof_H 	H 	0.0657	0.0943	0.86	-0.673
Mof_H 	H 	0.1545	0.078	0.8574	0.637
Mof_H 	H 	0.1062	0.0683	0.84	0.586
Mof_H 	H 	0.1622	0.1136	0.8947	-0.108
Mof_H 	H 	0.0734	0.1299	0.8974	0.089
Mof_C 	C 	0.079	0.916	0.86	-0.04
Mof_H 	H 	0.0846	0.9544	0.8202	-1.116
Mof_H 	H 	0.0285	0.8934	0.8561	-0.297
Mof_H 	H 	0.1173	0.877	0.8534	-1.672
Mof_H 	H 	0.069	0.8622	0.8663	0.517
Mof_H 	H 	0.1251	0.9232	0.8304	-0.066
Mof_H 	H 	0.0363	0.9396	0.833	0.206
Mof_C 	C 	0.068	0.8329	0.019	0.657
Mof_H 	H 	0.0621	0.8078	0.9704	0.163
Mof_H 	H 	0.022	0.8266	0.0491	-0.131
Mof_H 	H 	0.1108	0.8103	0.0465	-0.027
Mof_H 	H 	0.0678	0.822	0.0736	0.297
Mof_H 	H 	0.1079	0.8032	0.9949	-0.174
Mof_H 	H 	0.0191	0.8195	0.9975	-0.198
Mof_C 	C 	0.095	0.956	0.148	-0.514
Mof_H 	H 	0.1044	0.0033	0.1754	0.303
Mof_H 	H 	0.1344	0.9194	0.1609	0.117
Mof_H 	H 	0.0456	0.9357	0.1635	0.457
Mof_H 	H 	0.0852	0.9023	0.1578	0.392
Mof_H 	H 	0.0552	0.9863	0.1724	-0.079
Mof_H 	H 	0.144	0.9699	0.1697	0.304
Mof_C 	C 	0.107	0.959	0.971	-0.249
Mof_C 	C 	0.1026	0.969	0.05	-0.019
Mof_C 	C 	0.088	0.047	0.064	0.062
Mof_C 	C 	0.083	0.0841	0.993	-0.407
Mof_C 	C 	0.095	0.029	0.936	0.016
Mof_C 	C 	0.122	0.885	0.931	0.008
Mof_H 	H 	0.122	0.8927	0.8766	-0.196
Mof_H 	H 	0.0822	0.8483	0.9445	0.01
Mof_H 	H 	0.171	0.8647	0.9472	1.031
Mof_H 	H 	0.1281	0.8444	0.9689	-1.005
Mof_H 	H 	0.1679	0.8888	0.9011	-0.566
Mof_H 	H 	0.0791	0.8724	0.8984	-0.078
Mof_C 	C 	0.112	0.909	0.11	0.512
Mof_H 	H 	0.1216	0.8604	0.0853	-0.493
Mof_H 	H 	0.0657	0.9057	0.14	-0.171
Mof_H 	H 	0.1545	0.922	0.1426	-0.711
Mof_H 	H 	0.1062	0.9317	0.16	-0.241
Mof_H 	H 	0.1622	0.8864	0.1053	0.095
Mof_H 	H 	0.0734	0.8701	0.1026	-0.075
Mof_C 	C 	0.079	0.084	0.14	0.026
Mof_H 	H 	0.0846	0.0456	0.1798	0.167
Mof_H 	H 	0.0285	0.1066	0.1439	0.097
Mof_H 	H 	0.1173	0.123	0.1466	-0.342
Mof_H 	H 	0.069	0.1378	0.1337	-0.16
Mof_H 	H 	0.1251	0.0768	0.1696	0.072
Mof_H 	H 	0.0363	0.0604	0.167	0.121
Mof_C 	C 	0.068	0.1671	0.981	0.143
Mof_H 	H 	0.0621	0.1922	0.0296	-0.421
Mof_H 	H 	0.022	0.1734	0.9509	-0.206
Mof_H 	H 	0.1108	0.1897	0.9535	0.772
Mof_H 	H 	0.0678	0.178	0.9264	-0.56
Mof_H 	H 	0.1079	0.1968	0.0051	-0.147
Mof_H 	H 	0.0191	0.1805	0.0025	0.219
Mof_C 	C 	0.095	0.044	0.852	0.253
Mof_H 	H 	0.1044	0.9967	0.8246	-0.003
Mof_H 	H 	0.1344	0.0806	0.8391	-0.453
Mof_H 	H 	0.0456	0.0643	0.8365	-0.212
Mof_H 	H 	0.0852	0.0977	0.8422	0.842
Mof_H 	H 	0.0552	0.0137	0.8276	0.089
Mof_H 	H 	0.144	0.0301	0.8303	0.151
Mof_C 	C 	0.893	0.959	0.029	-0.223
Mof_C 	C 	0.8974	0.969	0.95	-0.027
Mof_C 	C 	0.912	0.047	0.936	-0.25
Mof_C 	C 	0.917	0.0841	0.007	0.1
Mof_C 	C 	0.905	0.029	0.064	-0.116
Mof_C 	C 	0.878	0.885	0.069	-0.026
Mof_H 	H 	0.878	0.8927	0.1234	0.979
Mof_H 	H 	0.9178	0.8483	0.0555	-0.194
Mof_H 	H 	0.829	0.8647	0.0528	-0.138
Mof_H 	H 	0.8719	0.8444	0.0311	0.407
Mof_H 	H 	0.8321	0.8888	0.0989	-0.23
Mof_H 	H 	0.9209	0.8724	0.1016	-0.471
Mof_C 	C 	0.888	0.909	0.89	-0.076
Mof_H 	H 	0.8784	0.8604	0.9147	0.101
Mof_H 	H 	0.9343	0.9057	0.86	0.117
Mof_H 	H 	0.8455	0.922	0.8574	-0.135
Mof_H 	H 	0.8938	0.9317	0.84	0.18
Mof_H 	H 	0.8378	0.8864	0.8947	-0.073
Mof_H 	H 	0.9266	0.8701	0.8974	-0.15
Mof_C 	C 	0.921	0.084	0.86	0.109
Mof_H 	H 	0.9154	0.0456	0.8202	0.443
Mof_H 	H 	0.9715	0.1066	0.8561	1.046
Mof_H 	H 	0.8827	0.123	0.8534	1.032
Mof_H 	H 	0.931	0.1378	0.8663	-1.042
Mof_H 	H 	0.8749	0.0768	0.8304	-0.442
Mof_H 	H 	0.9637	0.0604	0.833	-0.374
Mof_C 	C 	0.932	0.1671	0.019	-0.208
Mof_H 	H 	0.9379	0.1922	0.9704	0.084
Mof_H 	H 	0.978	0.1734	0.0491	0.242
Mof_H 	H 	0.8892	0.1897	0.0465	-0.625
Mof_H 	H 	0.9322	0.178	0.0736	0.33
Mof_H 	H 	0.8921	0.1968	0.9949	0.144
Mof_H 	H 	0.9809	0.1805	0.9975	-0.152
Mof_C 	C 	0.905	0.044	0.148	0.275
Mof_H 	H 	0.8956	0.9967	0.1754	-0.418
Mof_H 	H 	0.8656	0.0806	0.1609	0.461
Mof_H 	H 	0.9544	0.0643	0.1635	-0.152
Mof_H 	H 	0.9148	0.0977	0.1578	-1.271
Mof_H 	H 	0.9448	0.0137	0.1724	-0.108
Mof_H 	H 	0.856	0.0301	0.1697	-0.438
Mof_C 	C 	0.893	0.041	0.971	0.22
Mof_C 	C 	0.8974	0.031	0.05	-0.123
Mof_C 	C 	0.912	0.953	0.064	0.065
Mof_C 	C 	0.917	0.9159	0.993	-0.046
Mof_C 	C 	0.905	0.971	0.936	0.011
Mof_C 	C 	0.878	0.115	0.931	0.178
Mof_H 	H 	0.878	0.1073	0.8766	-0.706
Mof_H 	H 	0.9178	0.1517	0.9445	0.015
Mof_H 	H 	0.829	0.1353	0.9472	-0.631
Mof_H 	H 	0.8719	0.1556	0.9689	0.539
Mof_H 	H 	0.8321	0.1112	0.9011	0.782
Mof_H 	H 	0.9209	0.1276	0.8984	0.223
Mof_C 	C 	0.888	0.091	0.11	0.067
Mof_H 	H 	0.8784	0.1396	0.0853	-0.07
Mof_H 	H 	0.9343	0.0943	0.14	0.501
Mof_H 	H 	0.8455	0.078	0.1426	0.357
Mof_H 	H 	0.8938	0.0683	0.16	-0.741
Mof_H 	H 	0.8378	0.1136	0.1053	0.128
Mof_H 	H 	0.9266	0.1299	0.1026	-0.253
Mof_C 	C 	0.921	0.916	0.14	0.168
Mof_H 	H 	0.9154	0.9544	0.1798	0.657
Mof_H 	H 	0.9715	0.8934	0.1439	-0.869
Mof_H 	H 	0.8827	0.877	0.1466	0.556
Mof_H 	H 	0.931	0.8622	0.1337	0.465
Mof_H 	H 	0.8749	0.9232	0.1696	0.477
Mof_H 	H 	0.9637	0.9396	0.167	0.135
Mof_C 	C 	0.932	0.8329	0.981	0.095
Mof_H 	H 	0.9379	0.8078	0.0296	-0.312
Mof_H 	H 	0.978	0.8266	0.9509	0.101
Mof_H 	H 	0.8892	0.8103	0.9535	-0.066
Mof_H 	H 	0.9322	0.822	0.9264	-0.126
Mof_H 	H 	0.8921	0.8032	0.0051	0.14
Mof_H 	H 	0.9809	0.8195	0.0025	0.123
Mof_C 	C 	0.905	0.956	0.852	0.288
Mof_H 	H 	0.8956	0.0033	0.8246	0.041
Mof_H 	H 	0.8656	0.9194	0.8391	-0.159
Mof_H 	H 	0.9544	0.9357	0.8365	-0.149
Mof_H 	H 	0.9148	0.9023	0.8422	0.209
Mof_H 	H 	0.9448	0.9863	0.8276	0.112
Mof_H 	H 	0.856	0.9699	0.8303	-0
Mof_C 	C 	0.029	0.107	0.041	-0.071
Mof_C 	C 	0.95	0.1026	0.031	0.145
Mof_C 	C 	0.936	0.088	0.953	0.341
Mof_C 	C 	0.007	0.083	0.9159	0.105
Mof_C 	C 	0.064	0.095	0.971	0.142
Mof_C 	C 	0.069	0.122	0.115	0.004
Mof_H 	H 	0.1234	0.122	0.1073	0.082
Mof_H 	H 	0.0555	0.0822	0.1517	-0.084
Mof_H 	H 	0.0528	0.171	0.1353	-0.195
Mof_H 	H 	0.0311	0.1281	0.1556	-0.003
Mof_H 	H 	0.0989	0.1679	0.1112	0.179
Mof_H 	H 	0.1016	0.0791	0.1276	0.105
Mof_C 	C 	0.89	0.112	0.091	-0.157
Mof_H 	H 	0.9147	0.1216	0.1396	0.605
Mof_H 	H 	0.86	0.0657	0.0943	-0.673
Mof_H 	H 	0.8574	0.1545	0.078	0.637
Mof_H 	H 	0.84	0.1062	0.0683	0.586
Mof_H 	H 	0.8947	0.1622	0.1136	-0.108
Mof_H 	H 	0.8974	0.0734	0.1299	0.089
Mof_C 	C 	0.86	0.079	0.916	-0.04
Mof_H 	H 	0.8202	0.0846	0.9544	-1.116
Mof_H 	H 	0.8561	0.0285	0.8934	-0.297
Mof_H 	H 	0.8534	0.1173	0.877	-1.672
Mof_H 	H 	0.8663	0.069	0.8622	0.517
Mof_H 	H 	0.8304	0.1251	0.9232	-0.066
Mof_H 	H 	0.833	0.0363	0.9396	0.206
Mof_C 	C 	0.019	0.068	0.8329	0.657
Mof_H 	H 	0.9704	0.0621	0.8078	0.163
Mof_H 	H 	0.0491	0.022	0.8266	-0.131
Mof_H 	H 	0.0465	0.1108	0.8103	-0.027
Mof_H 	H 	0.0736	0.0678	0.822	0.297
Mof_H 	H 	0.9949	0.1079	0.8032	-0.174
Mof_H 	H 	0.9975	0.0191	0.8195	-0.198
Mof_C 	C 	0.148	0.095	0.956	-0.514
Mof_H 	H 	0.1754	0.1044	0.0033	0.303
Mof_H 	H 	0.1609	0.1344	0.9194	0.117
Mof_H 	H 	0.1635	0.0456	0.9357	0.457
Mof_H 	H 	0.1578	0.0852	0.9023	0.392
Mof_H 	H 	0.1724	0.0552	0.9863	-0.079
Mof_H 	H 	0.1697	0.144	0.9699	0.304
Mof_C 	C 	0.971	0.107	0.959	-0.249
Mof_C 	C 	0.05	0.1026	0.969	-0.019
Mof_C 	C 	0.064	0.088	0.047	0.062
Mof_C 	C 	0.993	0.083	0.0841	-0.407
Mof_C 	C 	0.936	0.095	0.029	0.016
Mof_C 	C 	0.931	0.122	0.885	0.008
Mof_H 	H 	0.8766	0.122	0.8927	-0.196
Mof_H 	H 	0.9445	0.0822	0.8483	0.01
Mof_H 	H 	0.9472	0.171	0.8647	1.031
Mof_H 	H 	0.9689	0.1281	0.8444	-1.005
Mof_H 	H 	0.9011	0.1679	0.8888	-0.566
Mof_H 	H 	0.8984	0.0791	0.8724	-0.078
Mof_C 	C 	0.11	0.112	0.909	0.512
Mof_H 	H 	0.0853	0.1216	0.8604	-0.493
Mof_H 	H 	0.14	0.0657	0.9057	-0.171
Mof_H 	H 	0.1426	0.1545	0.922	-0.711
Mof_H 	H 	0.16	0.1062	0.9317	-0.241
Mof_H 	H 	0.1053	0.1622	0.8864	0.095
Mof_H 	H 	0.1026	0.0734	0.8701	-0.075
Mof_C 	C 	0.14	0.079	0.084	0.026
Mof_H 	H 	0.1798	0.0846	0.0456	0.167
Mof_H 	H 	0.1439	0.0285	0.1066	0.097
Mof_H 	H 	0.1466	0.1173	0.123	-0.342
Mof_H 	H 	0.1337	0.069	0.1378	-0.16
Mof_H 	H 	0.1696	0.1251	0.0768	0.072
Mof_H 	H 	0.167	0.0363	0.0604	0.121
Mof_C 	C 	0.981	0.068	0.1671	0.143
Mof_H 	H 	0.0296	0.0621	0.1922	-0.421
Mof_H 	H 	0.9509	0.022	0.1734	-0.206
Mof_H 	H 	0.9535	0.1108	0.1897	0.772
Mof_H 	H 	0.9264	0.0678	0.178	-0.56
Mof_H 	H 	0.0051	0.1079	0.1968	-0.147
Mof_H 	H 	0.0025	0.0191	0.1805	0.219
Mof_C 	C 	0.852	0.095	0.044	0.253
Mof_H 	H 	0.8246	0.1044	0.9967	-0.003
Mof_H 	H 	0.8391	0.1344	0.0806	-0.453
Mof_H 	H 	0.8365	0.0456	0.0643	-0.212
Mof_H 	H 	0.8422	0.0852	0.0977	0.842
Mof_H 	H 	0.8276	0.0552	0.0137	0.089
Mof_H 	H 	0.8303	0.144	0.0301	0.151
Mof_C 	C 	0.029	0.893	0.959	-0.223
Mof_C 	C 	0.95	0.8974	0.969	-0.027
Mof_C 	C 	0.936	0.912	0.047	-0.25
Mof_C 	C 	0.007	0.917	0.0841	0.1
Mof_C 	C 	0.064	0.905	0.029	-0.116
Mof_C 	C 	0.069	0.878	0.885	-0.026
Mof_H 	H 	0.1234	0.878	0.8927	0.979
Mof_H 	H 	0.0555	0.9178	0.8483	-0.194
Mof_H 	H 	0.0528	0.829	0.8647	-0.138
Mof_H 	H 	0.0311	0.8719	0.8444	0.407
Mof_H 	H 	0.0989	0.8321	0.8888	-0.23
Mof_H 	H 	0.1016	0.9209	0.8724	-0.471
Mof_C 	C 	0.89	0.888	0.909	-0.076
Mof_H 	H 	0.9147	0.8784	0.8604	0.101
Mof_H 	H 	0.86	0.9343	0.9057	0.117
Mof_H 	H 	0.8574	0.8455	0.922	-0.135
Mof_H 	H 	0.84	0.8938	0.9317	0.18
Mof_H 	H 	0.8947	0.8378	0.8864	-0.073
Mof_H 	H 	0.8974	0.9266	0.8701	-0.15
Mof_C 	C 	0.86	0.921	0.084	0.109
Mof_H 	H 	0.8202	0.9154	0.0456	0.443
Mof_H 	H 	0.8561	0.9715	0.1066	1.046
Mof_H 	H 	0.8534	0.8827	0.123	1.032
Mof_H 	H 	0.8663	0.931	0.1378	-1.042
Mof_H 	H 	0.8304	0.8749	0.0768	-0.442
Mof_H 	H 	0.833	0.9637	0.0604	-0.374
Mof_C 	C 	0.019	0.932	0.1671	-0.208
Mof_H 	H 	0.9704	0.9379	0.1922	0.084
Mof_H 	H 	0.0491	0.978	0.1734	0.242
Mof_H 	H 	0.0465	0.8892	0.1897	-0.625
Mof_H 	H 	0.0736	0.9322	0.178	0.33
Mof_H 	H 	0.9949	0.8921	0.1968	0.144
Mof_H 	H 	0.9975	0.9809	0.1805	-0.152
Mof_C 	C 	0.148	0.905	0.044	0.275
Mof_H 	H 	0.1754	0.8956	0.9967	-0.418
Mof_H 	H 	0.1609	0.8656	0.0806	0.461
Mof_H 	H 	0.1635	0.9544	0.0643	-0.152
Mof_H 	H 	0.1578	0.9148	0.0977	-1.271
Mof_H 	H 	0.1724	0.9448	0.0137	-0.108
Mof_H 	H 	0.1697	0.856	0.0301	-0.438
Mof_C 	C 	0.971	0.893	0.041	0.22
Mof_C 	C 	0.05	0.8974	0.031	-0.123
Mof_C 	C 	0.064	0.912	0.953	0.065
Mof_C 	C 	0.993	0.917	0.9159	-0.046
Mof_C 	C 	0.936	0.905	0.971	0.011
Mof_C 	C 	0.931	0.878	0.115	0.178
Mof_H 	H 	0.8766	0.878	0.1073	-0.706
Mof_H 	H 	0.9445	0.9178	0.1517	0.015
Mof_H 	H 	0.9472	0.829	0.1353	-0.631
Mof_H 	H 	0.9689	0.8719	0.1556	0.539
Mof_H 	H 	0.9011	0.8321	0.1112	0.782
Mof_H 	H 	0.8984	0.9209	0.1276	0.223
Mof_C 	C 	0.11	0.888	0.091	0.067
Mof_H 	H 	0.0853	0.8784	0.1396	-0.07
Mof_H 	H 	0.14	0.9343	0.0943	0.501
Mof_H 	H 	0.1426	0.8455	0.078	0.357
Mof_H 	H 	0.16	0.8938	0.0683	-0.741
Mof_H 	H 	0.1053	0.8378	0.1136	0.128
Mof_H 	H 	0.1026	0.9266	0.1299	-0.253
Mof_C 	C 	0.14	0.921	0.916	0.168
Mof_H 	H 	0.1798	0.9154	0.9544	0.657
Mof_H 	H 	0.1439	0.9715	0.8934	-0.869
Mof_H 	H 	0.1466	0.8827	0.877	0.556
Mof_H 	H 	0.1337	0.931	0.8622	0.465
Mof_H 	H 	0.1696	0.8749	0.9232	0.477
Mof_H 	H 	0.167	0.9637	0.9396	0.135
Mof_C 	C 	0.981	0.932	0.8329	0.095
Mof_H 	H 	0.0296	0.9379	0.8078	-0.312
Mof_H 	H 	0.9509	0.978	0.8266	0.101
Mof_H 	H 	0.9535	0.8892	0.8103	-0.066
Mof_H 	H 	0.9264	0.9322	0.822	-0.126
Mof_H 	H 	0.0051	0.8921	0.8032	0.14
Mof_H 	H 	0.0025	0.9809	0.8195	0.123
Mof_C 	C 	0.852	0.905	0.956	0.288
Mof_H 	H 	0.8246	0.8956	0.0033	0.041
Mof_H 	H 	0.8391	0.8656	0.9194	-0.159
Mof_H 	H 	0.8365	0.9544	0.9357	-0.149
Mof_H 	H 	0.8422	0.9148	0.9023	0.209
Mof_H 	H 	0.8276	0.9448	0.9863	0.112
Mof_H 	H 	0.8303	0.856	0.9699	-0
Mof_C 	C 	0.959	0.971	0.893	-0.076
Mof_C 	C 	0.969	0.05	0.8974	-0.158
Mof_C 	C 	0.047	0.064	0.912	-0.228
Mof_C 	C 	0.0841	0.993	0.917	-0.223
Mof_C 	C 	0.029	0.936	0.905	-0.118
Mof_C 	C 	0.885	0.931	0.878	0.079
Mof_H 	H 	0.8927	0.8766	0.878	-0.001
Mof_H 	H 	0.8483	0.9445	0.9178	-0.039
Mof_H 	H 	0.8647	0.9472	0.829	0.23
Mof_H 	H 	0.8444	0.9689	0.8719	-0.034
Mof_H 	H 	0.8888	0.9011	0.8321	-0.104
Mof_H 	H 	0.8724	0.8984	0.9209	-0.224
Mof_C 	C 	0.909	0.11	0.888	0.331
Mof_H 	H 	0.8604	0.0853	0.8784	-0.533
Mof_H 	H 	0.9057	0.14	0.9343	0.559
Mof_H 	H 	0.922	0.1426	0.8455	-0.559
Mof_H 	H 	0.9317	0.16	0.8938	-0.699
Mof_H 	H 	0.8864	0.1053	0.8378	0.131
Mof_H 	H 	0.8701	0.1026	0.9266	-0.284
Mof_C 	C 	0.084	0.14	0.921	0.172
Mof_H 	H 	0.0456	0.1798	0.9154	1.196
Mof_H 	H 	0.1066	0.1439	0.9715	0.279
Mof_H 	H 	0.123	0.1466	0.8827	1.457
Mof_H 	H 	0.1378	0.1337	0.931	-0.625
Mof_H 	H 	0.0768	0.1696	0.8749	0.088
Mof_H 	H 	0.0604	0.167	0.9637	-0.16
Mof_C 	C 	0.1671	0.981	0.932	-0.313
Mof_H 	H 	0.1922	0.0296	0.9379	-0.409
Mof_H 	H 	0.1734	0.9509	0.978	0.135
Mof_H 	H 	0.1897	0.9535	0.8892	0.056
Mof_H 	H 	0.178	0.9264	0.9322	-0.326
Mof_H 	H 	0.1968	0.0051	0.8921	0.155
Mof_H 	H 	0.1805	0.0025	0.9809	0.195
Mof_C 	C 	0.044	0.852	0.905	0.659
Mof_H 	H 	0.9967	0.8246	0.8956	-0.335
Mof_H 	H 	0.0806	0.8391	0.8656	-0.137
Mof_H 	H 	0.0643	0.8365	0.9544	-0.484
Mof_H 	H 	0.0977	0.8422	0.9148	-0.299
Mof_H 	H 	0.0137	0.8276	0.9448	0.086
Mof_H 	H 	0.0301	0.8303	0.856	-0.291
Mof_C 	C 	0.041	0.029	0.893	0.074
Mof_C 	C 	0.031	0.95	0.8974	0.008
Mof_C 	C 	0.953	0.936	0.912	0.036
Mof_C 	C 	0.9159	0.007	0.917	0.27
Mof_C 	C 	0.971	0.064	0.905	0.013
Mof_C 	C 	0.115	0.069	0.878	0.074
Mof_H 	H 	0.1073	0.1234	0.878	0.28
Mof_H 	H 	0.1517	0.0555	0.9178	-0.141
Mof_H 	H 	0.1353	0.0528	0.829	-0.998
Mof_H 	H 	0.1556	0.0311	0.8719	0.976
Mof_H 	H 	0.1112	0.0989	0.8321	0.648
Mof_H 	H 	0.1276	0.1016	0.9209	-0.031
Mof_C 	C 	0.091	0.89	0.888	-0.337
Mof_H 	H 	0.1396	0.9147	0.8784	0.564
Mof_H 	H 	0.0943	0.86	0.9343	0.053
Mof_H 	H 	0.078	0.8574	0.8455	0.786
Mof_H 	H 	0.0683	0.84	0.8938	0.133
Mof_H 	H 	0.1136	0.8947	0.8378	-0.072
Mof_H 	H 	0.1299	0.8974	0.9266	-0.118
Mof_C 	C 	0.916	0.86	0.921	0.105
Mof_H 	H 	0.9544	0.8202	0.9154	-0.094
Mof_H 	H 	0.8934	0.8561	0.9715	-0.108
Mof_H 	H 	0.877	0.8534	0.8827	0.136
Mof_H 	H 	0.8622	0.8663	0.931	0.058
Mof_H 	H 	0.9232	0.8304	0.8749	-0.052
Mof_H 	H 	0.9396	0.833	0.9637	-0.081
Mof_C 	C 	0.8329	0.019	0.932	0.197
Mof_H 	H 	0.8078	0.9704	0.9379	0.188
Mof_H 	H 	0.8266	0.0491	0.978	0.209
Mof_H 	H 	0.8103	0.0465	0.8892	-0.745
Mof_H 	H 	0.822	0.0736	0.9322	0.533
Mof_H 	H 	0.8032	0.9949	0.8921	0.133
Mof_H 	H 	0.8195	0.9975	0.9809	-0.219
Mof_C 	C 	0.956	0.148	0.905	-0.103
Mof_H 	H 	0.0033	0.1754	0.8956	-0.037
Mof_H 	H 	0.9194	0.1609	0.8656	0.439
Mof_H 	H 	0.9357	0.1635	0.9544	0.187
Mof_H 	H 	0.9023	0.1578	0.9148	-0.763
Mof_H 	H 	0.9863	0.1724	0.9448	-0.081
Mof_H 	H 	0.9699	0.1697	0.856	-0.144
Mof_C 	C 	0.041	0.971	0.107	0.059
Mof_C 	C 	0.031	0.05	0.1026	0.022
Mof_C 	C 	0.953	0.064	0.088	0.364
Mof_C 	C 	0.9159	0.993	0.083	-0.22
Mof_C 	C 	0.971	0.936	0.095	0.143
Mof_C 	C 	0.115	0.931	0.122	0.108
Mof_H 	H 	0.1073	0.8766	0.122	-0.902
Mof_H 	H 	0.1517	0.9445	0.0822	0.067
Mof_H 	H 	0.1353	0.9472	0.171	0.168
Mof_H 	H 	0.1556	0.9689	0.1281	-0.429
Mof_H 	H 	0.1112	0.9011	0.1679	0.32
Mof_H 	H 	0.1276	0.8984	0.0791	0.365
Mof_C 	C 	0.091	0.11	0.112	0.241
Mof_H 	H 	0.1396	0.0853	0.1216	-0.024
Mof_H 	H 	0.0943	0.14	0.0657	-0.224
Mof_H 	H 	0.078	0.1426	0.1545	0.201
Mof_H 	H 	0.0683	0.16	0.1062	-0.272
Mof_H 	H 	0.1136	0.1053	0.1622	0.089
Mof_H 	H 	0.1299	0.1026	0.0734	-0.046
Mof_C 	C 	0.916	0.14	0.079	0.022
Mof_H 	H 	0.9544	0.1798	0.0846	-0.372
Mof_H 	H 	0.8934	0.1439	0.0285	-1.056
Mof_H 	H 	0.877	0.1466	0.1173	-1.256
Mof_H 	H 	0.8622	0.1337	0.069	0.931
Mof_H 	H 	0.9232	0.1696	0.1251	0.461
Mof_H 	H 	0.9396	0.167	0.0363	0.419
Mof_C 	C 	0.8329	0.981	0.068	0.551
Mof_H 	H 	0.8078	0.0296	0.0621	-0.334
Mof_H 	H 	0.8266	0.9509	0.022	-0.235
Mof_H 	H 	0.8103	0.9535	0.1108	0.649
Mof_H 	H 	0.822	0.9264	0.0678	-0.352
Mof_H 	H 	0.8032	0.0051	0.1079	-0.16
Mof_H 	H 	0.8195	0.0025	0.0191	0.15
Mof_C 	C 	0.956	0.852	0.095	-0.127
Mof_H 	H 	0.0033	0.8246	0.1044	0.379
Mof_H 	H 	0.9194	0.8391	0.1344	-0.472
Mof_H 	H 	0.9357	0.8365	0.0456	0.127
Mof_H 	H 	0.9023	0.8422	0.0852	1.352
Mof_H 	H 	0.9863	0.8276	0.0552	0.115
Mof_H 	H 	0.9699	0.8303	0.144	0.448
Mof_C 	C 	0.959	0.029	0.107	-0.38
Mof_C 	C 	0.969	0.95	0.1026	0.103
Mof_C 	C 	0.047	0.936	0.088	0.047
Mof_C 	C 	0.0841	0.007	0.083	-0.075
Mof_C 	C 	0.029	0.064	0.095	0.015
Mof_C 	C 	0.885	0.069	0.122	-0.097
Mof_H 	H 	0.8927	0.1234	0.122	0.783
Mof_H 	H 	0.8483	0.0555	0.0822	-0.139
Mof_H 	H 	0.8647	0.0528	0.171	0.667
Mof_H 	H 	0.8444	0.0311	0.1281	-0.574
Mof_H 	H 	0.8888	0.0989	0.1679	-0.699
Mof_H 	H 	0.8724	0.1016	0.0791	-0.33
Mof_C 	C 	0.909	0.89	0.112	0.11
Mof_H 	H 	0.8604	0.9147	0.1216	0.137
Mof_H 	H 	0.9057	0.86	0.0657	-0.613
Mof_H 	H 	0.922	0.8574	0.1545	-0.281
Mof_H 	H 	0.9317	0.84	0.1062	0.623
Mof_H 	H 	0.8864	0.8947	0.1622	-0.105
Mof_H 	H 	0.8701	0.8974	0.0734	0.058
Mof_C 	C 	0.084	0.86	0.079	-0.037
Mof_H 	H 	0.0456	0.8202	0.0846	-0.578
Mof_H 	H 	0.1066	0.8561	0.0285	0.862
Mof_H 	H 	0.123	0.8534	0.1173	-0.765
Mof_H 	H 	0.1378	0.8663	0.069	-0.584
Mof_H 	H 	0.0768	0.8304	0.1251	-0.457
Mof_H 	H 	0.0604	0.833	0.0363	-0.09
Mof_C 	C 	0.1671	0.019	0.068	0.253
Mof_H 	H 	0.1922	0.9704	0.0621	0.069
Mof_H 	H 	0.1734	0.0491	0.022	-0.103
Mof_H 	H 	0.1897	0.0465	0.1108	0.095
Mof_H 	H 	0.178	0.0736	0.0678	0.086
Mof_H 	H 	0.1968	0.9949	0.1079	-0.165
Mof_H 	H 	0.1805	0.9975	0.0191	-0.135
Mof_C 	C 	0.044	0.148	0.095	-0.127
Mof_H 	H 	0.9967	0.1754	0.1044	-0.085
Mof_H 	H 	0.0806	0.1609	0.1344	0.137
Mof_H 	H 	0.0643	0.1635	0.0456	0.114
Mof_H 	H 	0.0977	0.1578	0.0852	-0.118
Mof_H 	H 	0.0137	0.1724	0.0552	-0.106
Mof_H 	H 	0.0301	0.1697	0.144	0.003
Mof_C 	C 	0.893	0.959	0.971	-0.076
Mof_C 	C 	0.8974	0.969	0.05	-0.158
Mof_C 	C 	0.912	0.047	0.064	-0.228
Mof_C 	C 	0.917	0.0841	0.993	-0.223
Mof_C 	C 	0.905	0.029	0.936	-0.118
Mof_C 	C 	0.878	0.885	0.931	0.079
Mof_H 	H 	0.878	0.8927	0.8766	-0.001
Mof_H 	H 	0.9178	0.8483	0.9445	-0.039
Mof_H 	H 	0.829	0.8647	0.9472	0.23
Mof_H 	H 	0.8719	0.8444	0.9689	-0.034
Mof_H 	H 	0.8321	0.8888	0.9011	-0.104
Mof_H 	H 	0.9209	0.8724	0.8984	-0.224
Mof_C 	C 	0.888	0.909	0.11	0.331
Mof_H 	H 	0.8784	0.8604	0.0853	-0.533
Mof_H 	H 	0.9343	0.9057	0.14	0.559
Mof_H 	H 	0.8455	0.922	0.1426	-0.559
Mof_H 	H 	0.8938	0.9317	0.16	-0.699
Mof_H 	H 	0.8378	0.8864	0.1053	0.131
Mof_H 	H 	0.9266	0.8701	0.1026	-0.284
Mof_C 	C 	0.921	0.084	0.14	0.172
Mof_H 	H 	0.9154	0.0456	0.1798	1.196
Mof_H 	H 	0.9715	0.1066	0.1439	0.279
Mof_H 	H 	0.8827	0.123	0.1466	1.457
Mof_H 	H 	0.931	0.1378	0.1337	-0.625
Mof_H 	H 	0.8749	0.0768	0.1696	0.088
Mof_H 	H 	0.9637	0.0604	0.167	-0.16
Mof_C 	C 	0.932	0.1671	0.981	-0.313
Mof_H 	H 	0.9379	0.1922	0.0296	-0.409
Mof_H 	H 	0.978	0.1734	0.9509	0.135
Mof_H 	H 	0.8892	0.1897	0.9535	0.056
Mof_H 	H 	0.9322	0.178	0.9264	-0.326
Mof_H 	H 	0.8921	0.1968	0.0051	0.155
Mof_H 	H 	0.9809	0.1805	0.0025	0.195
Mof_C 	C 	0.905	0.044	0.852	0.659
Mof_H 	H 	0.8956	0.9967	0.8246	-0.335
Mof_H 	H 	0.8656	0.0806	0.8391	-0.137
Mof_H 	H 	0.9544	0.0643	0.8365	-0.484
Mof_H 	H 	0.9148	0.0977	0.8422	-0.299
Mof_H 	H 	0.9448	0.0137	0.8276	0.086
Mof_H 	H 	0.856	0.0301	0.8303	-0.291
Mof_C 	C 	0.893	0.041	0.029	0.074
Mof_C 	C 	0.8974	0.031	0.95	0.008
Mof_C 	C 	0.912	0.953	0.936	0.036
Mof_C 	C 	0.917	0.9159	0.007	0.27
Mof_C 	C 	0.905	0.971	0.064	0.013
Mof_C 	C 	0.878	0.115	0.069	0.074
Mof_H 	H 	0.878	0.1073	0.1234	0.28
Mof_H 	H 	0.9178	0.1517	0.0555	-0.141
Mof_H 	H 	0.829	0.1353	0.0528	-0.998
Mof_H 	H 	0.8719	0.1556	0.0311	0.976
Mof_H 	H 	0.8321	0.1112	0.0989	0.648
Mof_H 	H 	0.9209	0.1276	0.1016	-0.031
Mof_C 	C 	0.888	0.091	0.89	-0.337
Mof_H 	H 	0.8784	0.1396	0.9147	0.564
Mof_H 	H 	0.9343	0.0943	0.86	0.053
Mof_H 	H 	0.8455	0.078	0.8574	0.786
Mof_H 	H 	0.8938	0.0683	0.84	0.133
Mof_H 	H 	0.8378	0.1136	0.8947	-0.072
Mof_H 	H 	0.9266	0.1299	0.8974	-0.118
Mof_C 	C 	0.921	0.916	0.86	0.105
Mof_H 	H 	0.9154	0.9544	0.8202	-0.094
Mof_H 	H 	0.9715	0.8934	0.8561	-0.108
Mof_H 	H 	0.8827	0.877	0.8534	0.136
Mof_H 	H 	0.931	0.8622	0.8663	0.058
Mof_H 	H 	0.8749	0.9232	0.8304	-0.052
Mof_H 	H 	0.9637	0.9396	0.833	-0.081
Mof_C 	C 	0.932	0.8329	0.019	0.197
Mof_H 	H 	0.9379	0.8078	0.9704	0.188
Mof_H 	H 	0.978	0.8266	0.0491	0.209
Mof_H 	H 	0.8892	0.8103	0.0465	-0.745
Mof_H 	H 	0.9322	0.822	0.0736	0.533
Mof_H 	H 	0.8921	0.8032	0.9949	0.133
Mof_H 	H 	0.9809	0.8195	0.9975	-0.219
Mof_C 	C 	0.905	0.956	0.148	-0.103
Mof_H 	H 	0.8956	0.0033	0.1754	-0.037
Mof_H 	H 	0.8656	0.9194	0.1609	0.439
Mof_H 	H 	0.9544	0.9357	0.1635	0.187
Mof_H 	H 	0.9148	0.9023	0.1578	-0.763
Mof_H 	H 	0.9448	0.9863	0.1724	-0.081
Mof_H 	H 	0.856	0.9699	0.1697	-0.144
Mof_C 	C 	0.107	0.041	0.971	0.059
Mof_C 	C 	0.1026	0.031	0.05	0.022
Mof_C 	C 	0.088	0.953	0.064	0.364
Mof_C 	C 	0.083	0.9159	0.993	-0.22
Mof_C 	C 	0.095	0.971	0.936	0.143
Mof_C 	C 	0.122	0.115	0.931	0.108
Mof_H 	H 	0.122	0.1073	0.8766	-0.902
Mof_H 	H 	0.0822	0.1517	0.9445	0.067
Mof_H 	H 	0.171	0.1353	0.9472	0.168
Mof_H 	H 	0.1281	0.1556	0.9689	-0.429
Mof_H 	H 	0.1679	0.1112	0.9011	0.32
Mof_H 	H 	0.0791	0.1276	0.8984	0.365
Mof_C 	C 	0.112	0.091	0.11	0.241
Mof_H 	H 	0.1216	0.1396	0.0853	-0.024
Mof_H 	H 	0.0657	0.0943	0.14	-0.224
Mof_H 	H 	0.1545	0.078	0.1426	0.201
Mof_H 	H 	0.1062	0.0683	0.16	-0.272
Mof_H 	H 	0.1622	0.1136	0.1053	0.089
Mof_H 	H 	0.0734	0.1299	0.1026	-0.046
Mof_C 	C 	0.079	0.916	0.14	0.022
Mof_H 	H 	0.0846	0.9544	0.1798	-0.372
Mof_H 	H 	0.0285	0.8934	0.1439	-1.056
Mof_H 	H 	0.1173	0.877	0.1466	-1.256
Mof_H 	H 	0.069	0.8622	0.1337	0.931
Mof_H 	H 	0.1251	0.9232	0.1696	0.461
Mof_H 	H 	0.0363	0.9396	0.167	0.419
Mof_C 	C 	0.068	0.8329	0.981	0.551
Mof_H 	H 	0.0621	0.8078	0.0296	-0.334
Mof_H 	H 	0.022	0.8266	0.9509	-0.235
Mof_H 	H 	0.1108	0.8103	0.9535	0.649
Mof_H 	H 	0.0678	0.822	0.9264	-0.352
Mof_H 	H 	0.1079	0.8032	0.0051	-0.16
Mof_H 	H 	0.0191	0.8195	0.0025	0.15
Mof_C 	C 	0.095	0.956	0.852	-0.127
Mof_H 	H 	0.1044	0.0033	0.8246	0.379
Mof_H 	H 	0.1344	0.9194	0.8391	-0.472
Mof_H 	H 	0.0456	0.9357	0.8365	0.127
Mof_H 	H 	0.0852	0.9023	0.8422	1.352
Mof_H 	H 	0.0552	0.9863	0.8276	0.115
Mof_H 	H 	0.144	0.9699	0.8303	0.448
Mof_C 	C 	0.107	0.959	0.029	-0.38
Mof_C 	C 	0.1026	0.969	0.95	0.103
Mof_C 	C 	0.088	0.047	0.936	0.047
Mof_C 	C 	0.083	0.0841	0.007	-0.075
Mof_C 	C 	0.095	0.029	0.064	0.015
Mof_C 	C 	0.122	0.885	0.069	-0.097
Mof_H 	H 	0.122	0.8927	0.1234	0.783
Mof_H 	H 	0.0822	0.8483	0.0555	-0.139
Mof_H 	H 	0.171	0.8647	0.0528	0.667
Mof_H 	H 	0.1281	0.8444	0.0311	-0.574
Mof_H 	H 	0.1679	0.8888	0.0989	-0.699
Mof_H 	H 	0.0791	0.8724	0.1016	-0.33
Mof_C 	C 	0.112	0.909	0.89	0.11
Mof_H 	H 	0.1216	0.8604	0.9147	0.137
Mof_H 	H 	0.0657	0.9057	0.86	-0.613
Mof_H 	H 	0.1545	0.922	0.8574	-0.281
Mof_H 	H 	0.1062	0.9317	0.84	0.623
Mof_H 	H 	0.1622	0.8864	0.8947	-0.105
Mof_H 	H 	0.0734	0.8701	0.8974	0.058
Mof_C 	C 	0.079	0.084	0.86	-0.037
Mof_H 	H 	0.0846	0.0456	0.8202	-0.578
Mof_H 	H 	0.0285	0.1066	0.8561	0.862
Mof_H 	H 	0.1173	0.123	0.8534	-0.765
Mof_H 	H 	0.069	0.1378	0.8663	-0.584
Mof_H 	H 	0.1251	0.0768	0.8304	-0.457
Mof_H 	H 	0.0363	0.0604	0.833	-0.09
Mof_C 	C 	0.068	0.1671	0.019	0.253
Mof_H 	H 	0.0621	0.1922	0.9704	0.069
Mof_H 	H 	0.022	0.1734	0.0491	-0.103
Mof_H 	H 	0.1108	0.1897	0.0465	0.095
Mof_H 	H 	0.0678	0.178	0.0736	0.086
Mof_H 	H 	0.1079	0.1968	0.9949	-0.165
Mof_H 	H 	0.0191	0.1805	0.9975	-0.135
Mof_C 	C 	0.095	0.044	0.148	-0.127
Mof_H 	H 	0.1044	0.9967	0.1754	-0.085
Mof_H 	H 	0.1344	0.0806	0.1609	0.137
Mof_H 	H 	0.0456	0.0643	0.1635	0.114
Mof_H 	H 	0.0852	0.0977	0.1578	-0.118
Mof_H 	H 	0.0552	0.0137	0.1724	-0.106
Mof_H 	H 	0.144	0.0301	0.1697	0.003
Mof_C 	C 	0.971	0.893	0.959	-0.076
Mof_C 	C 	0.05	0.8974	0.969	-0.158
Mof_C 	C 	0.064	0.912	0.047	-0.228
Mof_C 	C 	0.993	0.917	0.0841	-0.223
Mof_C 	C 	0.936	0.905	0.029	-0.118
Mof_C 	C 	0.931	0.878	0.885	0.079
Mof_H 	H 	0.8766	0.878	0.8927	-0.001
Mof_H 	H 	0.9445	0.9178	0.8483	-0.039
Mof_H 	H 	0.9472	0.829	0.8647	0.23
Mof_H 	H 	0.9689	0.8719	0.8444	-0.034
Mof_H 	H 	0.9011	0.8321	0.8888	-0.104
Mof_H 	H 	0.8984	0.9209	0.8724	-0.224
Mof_C 	C 	0.11	0.888	0.909	0.331
Mof_H 	H 	0.0853	0.8784	0.8604	-0.533
Mof_H 	H 	0.14	0.9343	0.9057	0.559
Mof_H 	H 	0.1426	0.8455	0.922	-0.559
Mof_H 	H 	0.16	0.8938	0.9317	-0.699
Mof_H 	H 	0.1053	0.8378	0.8864	0.131
Mof_H 	H 	0.1026	0.9266	0.8701	-0.284
Mof_C 	C 	0.14	0.921	0.084	0.172
Mof_H 	H 	0.1798	0.9154	0.0456	1.196
Mof_H 	H 	0.1439	0.9715	0.1066	0.279
Mof_H 	H 	0.1466	0.8827	0.123	1.457
Mof_H 	H 	0.1337	0.931	0.1378	-0.625
Mof_H 	H 	0.1696	0.8749	0.0768	0.088
Mof_H 	H 	0.167	0.9637	0.0604	-0.16
Mof_C 	C 	0.981	0.932	0.1671	-0.313
Mof_H 	H 	0.0296	0.9379	0.1922	-0.409
Mof_H 	H 	0.9509	0.978	0.1734	0.135
Mof_H 	H 	0.9535	0.8892	0.1897	0.056
Mof_H 	H 	0.9264	0.9322	0.178	-0.326
Mof_H 	H 	0.0051	0.8921	0.1968	0.155
Mof_H 	H 	0.0025	0.9809	0.1805	0.195
Mof_C 	C 	0.852	0.905	0.044	0.659
Mof_H 	H 	0.8246	0.8956	0.9967	-0.335
Mof_H 	H 	0.8391	0.8656	0.0806	-0.137
Mof_H 	H 	0.8365	0.9544	0.0643	-0.484
Mof_H 	H 	0.8422	0.9148	0.0977	-0.299
Mof_H 	H 	0.8276	0.9448	0.0137	0.086
Mof_H 	H 	0.8303	0.856	0.0301	-0.291
Mof_C 	C 	0.029	0.893	0.041	0.074
Mof_C 	C 	0.95	0.8974	0.031	0.008
Mof_C 	C 	0.936	0.912	0.953	0.036
Mof_C 	C 	0.007	0.917	0.9159	0.27
Mof_C 	C 	0.064	0.905	0.971	0.013
Mof_C 	C 	0.069	0.878	0.115	0.074
Mof_H 	H 	0.1234	0.878	0.1073	0.28
Mof_H 	H 	0.0555	0.9178	0.1517	-0.141
Mof_H 	H 	0.0528	0.829	0.1353	-0.998
Mof_H 	H 	0.0311	0.8719	0.1556	0.976
Mof_H 	H 	0.0989	0.8321	0.1112	0.648
Mof_H 	H 	0.1016	0.9209	0.1276	-0.031
Mof_C 	C 	0.89	0.888	0.091	-0.337
Mof_H 	H 	0.9147	0.8784	0.1396	0.564
Mof_H 	H 	0.86	0.9343	0.0943	0.053
Mof_H 	H 	0.8574	0.8455	0.078	0.786
Mof_H 	H 	0.84	0.8938	0.0683	0.133
Mof_H 	H 	0.8947	0.8378	0.1136	-0.072
Mof_H 	H 	0.8974	0.9266	0.1299	-0.118
Mof_C 	C 	0.86	0.921	0.916	0.105
Mof_H 	H 	0.8202	0.9154	0.9544	-0.094
Mof_H 	H 	0.8561	0.9715	0.8934	-0.108
Mof_H 	H 	0.8534	0.8827	0.877	0.136
Mof_H 	H 	0.8663	0.931	0.8622	0.058
Mof_H 	H 	0.8304	0.8749	0.9232	-0.052
Mof_H 	H 	0.833	0.9637	0.9396	-0.081
Mof_C 	C 	0.019	0.932	0.8329	0.197
Mof_H 	H 	0.9704	0.9379	0.8078	0.188
Mof_H 	H 	0.0491	0.978	0.8266	0.209
Mof_H 	H 	0.0465	0.8892	0.8103	-0.745
Mof_H 	H 	0.0736	0.9322	0.822	0.533
Mof_H 	H 	0.9949	0.8921	0.8032	0.133
Mof_H 	H 	0.9975	0.9809	0.8195	-0.219
Mof_C 	C 	0.148	0.905	0.956	-0.103
Mof_H 	H 	0.1754	0.8956	0.0033	-0.037
Mof_H 	H 	0.1609	0.8656	0.9194	0.439
Mof_H 	H 	0.1635	0.9544	0.9357	0.187
Mof_H 	H 	0.1578	0.9148	0.9023	-0.763
Mof_H 	H 	0.1724	0.9448	0.9863	-0.081
Mof_H 	H 	0.1697	0.856	0.9699	-0.144
Mof_C 	C 	0.971	0.107	0.041	0.059
Mof_C 	C 	0.05	0.1026	0.031	0.022
Mof_C 	C 	0.064	0.088	0.953	0.364
Mof_C 	C 	0.993	0.083	0.9159	-0.22
Mof_C 	C 	0.936	0.095	0.971	0.143
Mof_C 	C 	0.931	0.122	0.115	0.108
Mof_H 	H 	0.8766	0.122	0.1073	-0.902
Mof_H 	H 	0.9445	0.0822	0.1517	0.067
Mof_H 	H 	0.9472	0.171	0.1353	0.168
Mof_H 	H 	0.9689	0.1281	0.1556	-0.429
Mof_H 	H 	0.9011	0.1679	0.1112	0.32
Mof_H 	H 	0.8984	0.0791	0.1276	0.365
Mof_C 	C 	0.11	0.112	0.091	0.241
Mof_H 	H 	0.0853	0.1216	0.1396	-0.024
Mof_H 	H 	0.14	0.0657	0.0943	-0.224
Mof_H 	H 	0.1426	0.1545	0.078	0.201
Mof_H 	H 	0.16	0.1062	0.0683	-0.272
Mof_H 	H 	0.1053	0.1622	0.1136	0.089
Mof_H 	H 	0.1026	0.0734	0.1299	-0.046
Mof_C 	C 	0.14	0.079	0.916	0.022
Mof_H 	H 	0.1798	0.0846	0.9544	-0.372
Mof_H 	H 	0.1439	0.0285	0.8934	-1.056
Mof_H 	H 	0.1466	0.1173	0.877	-1.256
Mof_H 	H 	0.1337	0.069	0.8622	0.931
Mof_H 	H 	0.1696	0.1251	0.9232	0.461
Mof_H 	H 	0.167	0.0363	0.9396	0.419
Mof_C 	C 	0.981	0.068	0.8329	0.551
Mof_H 	H 	0.0296	0.0621	0.8078	-0.334
Mof_H 	H 	0.9509	0.022	0.8266	-0.235
Mof_H 	H 	0.9535	0.1108	0.8103	0.649
Mof_H 	H 	0.9264	0.0678	0.822	-0.352
Mof_H 	H 	0.0051	0.1079	0.8032	-0.16
Mof_H 	H 	0.0025	0.0191	0.8195	0.15
Mof_C 	C 	0.852	0.095	0.956	-0.127
Mof_H 	H 	0.8246	0.1044	0.0033	0.379
Mof_H 	H 	0.8391	0.1344	0.9194	-0.472
Mof_H 	H 	0.8365	0.0456	0.9357	0.127
Mof_H 	H 	0.8422	0.0852	0.9023	1.352
Mof_H 	H 	0.8276	0.0552	0.9863	0.115
Mof_H 	H 	0.8303	0.144	0.9699	0.448
Mof_C 	C 	0.029	0.107	0.959	-0.38
Mof_C 	C 	0.95	0.1026	0.969	0.103
Mof_C 	C 	0.936	0.088	0.047	0.047
Mof_C 	C 	0.007	0.083	0.0841	-0.075
Mof_C 	C 	0.064	0.095	0.029	0.015
Mof_C 	C 	0.069	0.122	0.885	-0.097
Mof_H 	H 	0.1234	0.122	0.8927	0.783
Mof_H 	H 	0.0555	0.0822	0.8483	-0.139
Mof_H 	H 	0.0528	0.171	0.8647	0.667
Mof_H 	H 	0.0311	0.1281	0.8444	-0.574
Mof_H 	H 	0.0989	0.1679	0.8888	-0.699
Mof_H 	H 	0.1016	0.0791	0.8724	-0.33
Mof_C 	C 	0.89	0.112	0.909	0.11
Mof_H 	H 	0.9147	0.1216	0.8604	0.137
Mof_H 	H 	0.86	0.0657	0.9057	-0.613
Mof_H 	H 	0.8574	0.1545	0.922	-0.281
Mof_H 	H 	0.84	0.1062	0.9317	0.623
Mof_H 	H 	0.8947	0.1622	0.8864	-0.105
Mof_H 	H 	0.8974	0.0734	0.8701	0.058
Mof_C 	C 	0.86	0.079	0.084	-0.037
Mof_H 	H 	0.8202	0.0846	0.0456	-0.578
Mof_H 	H 	0.8561	0.0285	0.1066	0.862
Mof_H 	H 	0.8534	0.1173	0.123	-0.765
Mof_H 	H 	0.8663	0.069	0.1378	-0.584
Mof_H 	H 	0.8304	0.1251	0.0768	-0.457
Mof_H 	H 	0.833	0.0363	0.0604	-0.09
Mof_C 	C 	0.019	0.068	0.1671	0.253
Mof_H 	H 	0.9704	0.0621	0.1922	0.069
Mof_H 	H 	0.0491	0.022	0.1734	-0.103
Mof_H 	H 	0.0465	0.1108	0.1897	0.095
Mof_H 	H 	0.0736	0.0678	0.178	0.086
Mof_H 	H 	0.9949	0.1079	0.1968	-0.165
Mof_H 	H 	0.9975	0.0191	0.1805	-0.135
Mof_C 	C 	0.148	0.095	0.044	-0.127
Mof_H 	H 	0.1754	0.1044	0.9967	-0.085
Mof_H 	H 	0.1609	0.1344	0.0806	0.137
Mof_H 	H 	0.1635	0.0456	0.0643	0.114
Mof_H 	H 	0.1578	0.0852	0.0977	-0.118
Mof_H 	H 	0.1724	0.0552	0.0137	-0.106
Mof_H 	H 	0.1697	0.144	0.0301	0.003
Mof_Fe	Fe	-0	0	-0	0.542
Mof_C 	C 	0.541	0.529	0.607	-0.159
Mof_C 	C 	0.531	0.45	0.6026	-0.031
Mof_C 	C 	0.453	0.436	0.588	0.052
Mof_C 	C 	0.4159	0.507	0.583	-0.011
Mof_C 	C 	0.471	0.564	0.595	0.02
Mof_C 	C 	0.615	0.569	0.622	0.041
Mof_H 	H 	0.6073	0.6234	0.622	0.036
Mof_H 	H 	0.6517	0.5555	0.5822	-0.055
Mof_H 	H 	0.6353	0.5528	0.671	0.004
Mof_H 	H 	0.6556	0.5311	0.6281	-0.005
Mof_H 	H 	0.6112	0.5989	0.6679	0.045
Mof_H 	H 	0.6276	0.6016	0.5791	-0.048
Mof_C 	C 	0.591	0.39	0.612	0.073
Mof_H 	H 	0.6396	0.4147	0.6216	0.041
Mof_H 	H 	0.5943	0.36	0.5657	-0.086
Mof_H 	H 	0.578	0.3574	0.6545	0.039
Mof_H 	H 	0.5683	0.34	0.6062	-0.03
Mof_H 	H 	0.6136	0.3947	0.6622	0.011
Mof_H 	H 	0.6299	0.3974	0.5734	-0.081
Mof_C 	C 	0.416	0.36	0.579	0.058
Mof_H 	H 	0.4544	0.3202	0.5846	-0
Mof_H 	H 	0.3934	0.3561	0.5285	-0.013
Mof_H 	H 	0.377	0.3534	0.6173	-0.131
Mof_H 	H 	0.3622	0.3663	0.569	-0.027
Mof_H 	H 	0.4232	0.3304	0.6251	0.005
Mof_H 	H 	0.4396	0.333	0.5363	0.038
Mof_C 	C 	0.3329	0.519	0.568	0.161
Mof_H 	H 	0.3078	0.4704	0.5621	-0.135
Mof_H 	H 	0.3266	0.5491	0.522	0.008
Mof_H 	H 	0.3103	0.5465	0.6108	0.01
Mof_H 	H 	0.322	0.5736	0.5678	-0
Mof_H 	H 	0.3032	0.4949	0.6079	-0.001
Mof_H 	H 	0.3195	0.4975	0.5191	0.003
Mof_C 	C 	0.456	0.648	0.595	0.077
Mof_H 	H 	0.5033	0.6754	0.6044	-0.015
Mof_H 	H 	0.4194	0.6609	0.6344	-0.004
Mof_H 	H 	0.4357	0.6635	0.5456	0.015
Mof_H 	H 	0.4023	0.6578	0.5852	0.043
Mof_H 	H 	0.4863	0.6724	0.5552	0.005
Mof_H 	H 	0.4699	0.6697	0.644	0.014
Mof_C 	C 	0.459	0.471	0.607	-0.116
Mof_C 	C 	0.469	0.55	0.6026	-0.046
Mof_C 	C 	0.547	0.564	0.588	0.082
Mof_C 	C 	0.5841	0.493	0.583	-0.012
Mof_C 	C 	0.529	0.436	0.595	0.016
Mof_C 	C 	0.385	0.431	0.622	0.04
Mof_H 	H 	0.3927	0.3766	0.622	0.037
Mof_H 	H 	0.3483	0.4445	0.5822	-0.055
Mof_H 	H 	0.3647	0.4472	0.671	0.026
Mof_H 	H 	0.3444	0.4689	0.6281	-0.037
Mof_H 	H 	0.3888	0.4011	0.6679	0.024
Mof_H 	H 	0.3724	0.3984	0.5791	-0.05
Mof_C 	C 	0.409	0.61	0.612	0.083
Mof_H 	H 	0.3604	0.5853	0.6216	0.021
Mof_H 	H 	0.4057	0.64	0.5657	-0.069
Mof_H 	H 	0.422	0.6426	0.6545	0.022
Mof_H 	H 	0.4317	0.66	0.6062	-0.046
Mof_H 	H 	0.3864	0.6053	0.6622	0.014
Mof_H 	H 	0.3701	0.6026	0.5734	-0.083
Mof_C 	C 	0.584	0.64	0.579	0.062
Mof_H 	H 	0.5456	0.6798	0.5846	0.011
Mof_H 	H 	0.6066	0.6439	0.5285	-0.023
Mof_H 	H 	0.623	0.6466	0.6173	-0.102
Mof_H 	H 	0.6378	0.6337	0.569	-0.044
Mof_H 	H 	0.5768	0.6696	0.6251	0.004
Mof_H 	H 	0.5604	0.667	0.5363	0.045
Mof_C 	C 	0.6671	0.481	0.568	0.15
Mof_H 	H 	0.6922	0.5296	0.5621	-0.15
Mof_H 	H 	0.6734	0.4509	0.522	0.006
Mof_H 	H 	0.6897	0.4535	0.6108	0.028
Mof_H 	H 	0.678	0.4264	0.5678	-0.016
Mof_H 	H 	0.6968	0.5051	0.6079	-0.004
Mof_H 	H 	0.6805	0.5025	0.5191	0.008
Mof_C 	C 	0.544	0.352	0.595	0.073
Mof_H 	H 	0.4967	0.3246	0.6044	-0.012
Mof_H 	H 	0.5806	0.3391	0.6344	-0.02
Mof_H 	H 	0.5643	0.3365	0.5456	0.014
Mof_H 	H 	0.5977	0.3422	0.5852	0.06
Mof_H 	H 	0.5137	0.3276	0.5552	0.009
Mof_H 	H 	0.5301	0.3303	0.644	0.016
Mof_C 	C 	0.459	0.529	0.393	-0.116
Mof_C 	C 	0.469	0.45	0.3974	-0.014
Mof_C 	C 	0.547	0.436	0.412	0.024
Mof_C 	C 	0.5841	0.507	0.417	-0.029
Mof_C 	C 	0.529	0.564	0.405	0.007
Mof_C 	C 	0.385	0.569	0.378	0.04
Mof_H 	H 	0.3927	0.6234	0.378	0.054
Mof_H 	H 	0.3483	0.5555	0.4178	-0.058
Mof_H 	H 	0.3647	0.5528	0.329	0.007
Mof_H 	H 	0.3444	0.5311	0.3719	-0.015
Mof_H 	H 	0.3888	0.5989	0.3321	0.034
Mof_H 	H 	0.3724	0.6016	0.4209	-0.061
Mof_C 	C 	0.409	0.39	0.388	0.067
Mof_H 	H 	0.3604	0.4147	0.3784	0.042
Mof_H 	H 	0.4057	0.36	0.4343	-0.059
Mof_H 	H 	0.422	0.3574	0.3455	0.025
Mof_H 	H 	0.4317	0.34	0.3938	-0.028
Mof_H 	H 	0.3864	0.3947	0.3378	0.005
Mof_H 	H 	0.3701	0.3974	0.4266	-0.086
Mof_C 	C 	0.584	0.36	0.421	0.061
Mof_H 	H 	0.5456	0.3202	0.4154	0.017
Mof_H 	H 	0.6066	0.3561	0.4715	0.008
Mof_H 	H 	0.623	0.3534	0.3827	-0.083
Mof_H 	H 	0.6378	0.3663	0.431	-0.058
Mof_H 	H 	0.5768	0.3304	0.3749	-0.007
Mof_H 	H 	0.5604	0.333	0.4637	0.032
Mof_C 	C 	0.6671	0.519	0.432	0.15
Mof_H 	H 	0.6922	0.4704	0.4379	-0.12
Mof_H 	H 	0.6734	0.5491	0.478	0.008
Mof_H 	H 	0.6897	0.5465	0.3892	0.012
Mof_H 	H 	0.678	0.5736	0.4322	-0.01
Mof_H 	H 	0.6968	0.4949	0.3921	-0.001
Mof_H 	H 	0.6805	0.4975	0.4809	0
Mof_C 	C 	0.544	0.648	0.405	0.086
Mof_H 	H 	0.4967	0.6754	0.3956	-0.022
Mof_H 	H 	0.5806	0.6609	0.3656	-0.003
Mof_H 	H 	0.5643	0.6635	0.4544	0.01
Mof_H 	H 	0.5977	0.6578	0.4148	0.02
Mof_H 	H 	0.5137	0.6724	0.4448	0.004
Mof_H 	H 	0.5301	0.6697	0.356	0.005
Mof_C 	C 	0.541	0.471	0.393	-0.101
Mof_C 	C 	0.531	0.55	0.3974	-0.043
Mof_C 	C 	0.453	0.564	0.412	0.032
Mof_C 	C 	0.4159	0.493	0.417	-0.023
Mof_C 	C 	0.471	0.436	0.405	0.01
Mof_C 	C 	0.615	0.431	0.378	0.044
Mof_H 	H 	0.6073	0.3766	0.378	0.024
Mof_H 	H 	0.6517	0.4445	0.4178	-0.056
Mof_H 	H 	0.6353	0.4472	0.329	-0.001
Mof_H 	H 	0.6556	0.4689	0.3719	-0.012
Mof_H 	H 	0.6112	0.4011	0.3321	0.051
Mof_H 	H 	0.6276	0.3984	0.4209	-0.051
Mof_C 	C 	0.591	0.61	0.388	0.074
Mof_H 	H 	0.6396	0.5853	0.3784	0.033
Mof_H 	H 	0.5943	0.64	0.4343	-0.064
Mof_H 	H 	0.578	0.6426	0.3455	0.044
Mof_H 	H 	0.5683	0.66	0.3938	-0.053
Mof_H 	H 	0.6136	0.6053	0.3378	0.013
Mof_H 	H 	0.6299	0.6026	0.4266	-0.092
Mof_C 	C 	0.416	0.64	0.421	0.064
Mof_H 	H 	0.4544	0.6798	0.4154	0.033
Mof_H 	H 	0.3934	0.6439	0.4715	-0.023
Mof_H 	H 	0.377	0.6466	0.3827	-0.081
Mof_H 	H 	0.3622	0.6337	0.431	-0.033
Mof_H 	H 	0.4232	0.6696	0.3749	0.009
Mof_H 	H 	0.4396	0.667	0.4637	0.033
Mof_C 	C 	0.3329	0.481	0.432	0.166
Mof_H 	H 	0.3078	0.5296	0.4379	-0.14
Mof_H 	H 	0.3266	0.4509	0.478	0.002
Mof_H 	H 	0.3103	0.4535	0.3892	0.012
Mof_H 	H 	0.322	0.4264	0.4322	-0.026
Mof_H 	H 	0.3032	0.5051	0.3921	-0.008
Mof_H 	H 	0.3195	0.5025	0.4809	-0.004
Mof_C 	C 	0.456	0.352	0.405	0.09
Mof_H 	H 	0.5033	0.3246	0.3956	-0.021
Mof_H 	H 	0.4194	0.3391	0.3656	-0.02
Mof_H 	H 	0.4357	0.3365	0.4544	-0.006
Mof_H 	H 	0.4023	0.3422	0.4148	0.05
Mof_H 	H 	0.4863	0.3276	0.4448	0.006
Mof_H 	H 	0.4699	0.3303	0.356	0.004
Mof_C 	C 	0.607	0.541	0.529	-0.159
Mof_C 	C 	0.6026	0.531	0.45	-0.031
Mof_C 	C 	0.588	0.453	0.436	0.052
Mof_C 	C 	0.583	0.4159	0.507	-0.011
Mof_C 	C 	0.595	0.471	0.564	0.02
Mof_C 	C 	0.622	0.615	0.569	0.041
Mof_H 	H 	0.622	0.6073	0.6234	0.036
Mof_H 	H 	0.5822	0.6517	0.5555	-0.055
Mof_H 	H 	0.671	0.6353	0.5528	0.004
Mof_H 	H 	0.6281	0.6556	0.5311	-0.005
Mof_H 	H 	0.6679	0.6112	0.5989	0.045
Mof_H 	H 	0.5791	0.6276	0.6016	-0.048
Mof_C 	C 	0.612	0.591	0.39	0.073
Mof_H 	H 	0.6216	0.6396	0.4147	0.041
Mof_H 	H 	0.5657	0.5943	0.36	-0.086
Mof_H 	H 	0.6545	0.578	0.3574	0.039
Mof_H 	H 	0.6062	0.5683	0.34	-0.03
Mof_H 	H 	0.6622	0.6136	0.3947	0.011
Mof_H 	H 	0.5734	0.6299	0.3974	-0.081
Mof_C 	C 	0.579	0.416	0.36	0.058
Mof_H 	H 	0.5846	0.4544	0.3202	-0
Mof_H 	H 	0.5285	0.3934	0.3561	-0.013
Mof_H 	H 	0.6173	0.377	0.3534	-0.131
Mof_H 	H 	0.569	0.3622	0.3663	-0.027
Mof_H 	H 	0.6251	0.4232	0.3304	0.005
Mof_H 	H 	0.5363	0.4396	0.333	0.038
Mof_C 	C 	0.568	0.3329	0.519	0.161
Mof_H 	H 	0.5621	0.3078	0.4704	-0.135
Mof_H 	H 	0.522	0.3266	0.5491	0.008
Mof_H 	H 	0.6108	0.3103	0.5465	0.01
Mof_H 	H 	0.5678	0.322	0.5736	-0
Mof_H 	H 	0.6079	0.3032	0.4949	-0.001
Mof_H 	H 	0.5191	0.3195	0.4975	0.003
Mof_C 	C 	0.595	0.456	0.648	0.077
Mof_H 	H 	0.6044	0.5033	0.6754	-0.015
Mof_H 	H 	0.6344	0.4194	0.6609	-0.004
Mof_H 	H 	0.5456	0.4357	0.6635	0.015
Mof_H 	H 	0.5852	0.4023	0.6578	0.043
Mof_H 	H 	0.5552	0.4863	0.6724	0.005
Mof_H 	H 	0.644	0.4699	0.6697	0.014
Mof_C 	C 	0.607	0.459	0.471	-0.116
Mof_C 	C 	0.6026	0.469	0.55	-0.046
Mof_C 	C 	0.588	0.547	0.564	0.082
Mof_C 	C 	0.583	0.5841	0.493	-0.012
Mof_C 	C 	0.595	0.529	0.436	0.016
Mof_C 	C 	0.622	0.385	0.431	0.04
Mof_H 	H 	0.622	0.3927	0.3766	0.037
Mof_H 	H 	0.5822	0.3483	0.4445	-0.055
Mof_H 	H 	0.671	0.3647	0.4472	0.026
Mof_H 	H 	0.6281	0.3444	0.4689	-0.037
Mof_H 	H 	0.6679	0.3888	0.4011	0.024
Mof_H 	H 	0.5791	0.3724	0.3984	-0.05
Mof_C 	C 	0.612	0.409	0.61	0.083
Mof_H 	H 	0.6216	0.3604	0.5853	0.021
Mof_H 	H 	0.5657	0.4057	0.64	-0.069
Mof_H 	H 	0.6545	0.422	0.6426	0.022
Mof_H 	H 	0.6062	0.4317	0.66	-0.046
Mof_H 	H 	0.6622	0.3864	0.6053	0.014
Mof_H 	H 	0.5734	0.3701	0.6026	-0.083
Mof_C 	C 	0.579	0.584	0.64	0.062
Mof_H 	H 	0.5846	0.5456	0.6798	0.011
Mof_H 	H 	0.5285	0.6066	0.6439	-0.023
Mof_H 	H 	0.6173	0.623	0.6466	-0.102
Mof_H 	H 	0.569	0.6378	0.6337	-0.044
Mof_H 	H 	0.6251	0.5768	0.6696	0.004
Mof_H 	H 	0.5363	0.5604	0.667	0.045
Mof_C 	C 	0.568	0.6671	0.481	0.15
Mof_H 	H 	0.5621	0.6922	0.5296	-0.15
Mof_H 	H 	0.522	0.6734	0.4509	0.006
Mof_H 	H 	0.6108	0.6897	0.4535	0.028
Mof_H 	H 	0.5678	0.678	0.4264	-0.016
Mof_H 	H 	0.6079	0.6968	0.5051	-0.004
Mof_H 	H 	0.5191	0.6805	0.5025	0.008
Mof_C 	C 	0.595	0.544	0.352	0.073
Mof_H 	H 	0.6044	0.4967	0.3246	-0.012
Mof_H 	H 	0.6344	0.5806	0.3391	-0.02
Mof_H 	H 	0.5456	0.5643	0.3365	0.014
Mof_H 	H 	0.5852	0.5977	0.3422	0.06
Mof_H 	H 	0.5552	0.5137	0.3276	0.009
Mof_H 	H 	0.644	0.5301	0.3303	0.016
Mof_C 	C 	0.393	0.459	0.529	-0.116
Mof_C 	C 	0.3974	0.469	0.45	-0.014
Mof_C 	C 	0.412	0.547	0.436	0.024
Mof_C 	C 	0.417	0.5841	0.507	-0.029
Mof_C 	C 	0.405	0.529	0.564	0.007
Mof_C 	C 	0.378	0.385	0.569	0.04
Mof_H 	H 	0.378	0.3927	0.6234	0.054
Mof_H 	H 	0.4178	0.3483	0.5555	-0.058
Mof_H 	H 	0.329	0.3647	0.5528	0.007
Mof_H 	H 	0.3719	0.3444	0.5311	-0.015
Mof_H 	H 	0.3321	0.3888	0.5989	0.034
Mof_H 	H 	0.4209	0.3724	0.6016	-0.061
Mof_C 	C 	0.388	0.409	0.39	0.067
Mof_H 	H 	0.3784	0.3604	0.4147	0.042
Mof_H 	H 	0.4343	0.4057	0.36	-0.059
Mof_H 	H 	0.3455	0.422	0.3574	0.025
Mof_H 	H 	0.3938	0.4317	0.34	-0.028
Mof_H 	H 	0.3378	0.3864	0.3947	0.005
Mof_H 	H 	0.4266	0.3701	0.3974	-0.086
Mof_C 	C 	0.421	0.584	0.36	0.061
Mof_H 	H 	0.4154	0.5456	0.3202	0.017
Mof_H 	H 	0.4715	0.6066	0.3561	0.008
Mof_H 	H 	0.3827	0.623	0.3534	-0.083
Mof_H 	H 	0.431	0.6378	0.3663	-0.058
Mof_H 	H 	0.3749	0.5768	0.3304	-0.007
Mof_H 	H 	0.4637	0.5604	0.333	0.032
Mof_C 	C 	0.432	0.6671	0.519	0.15
Mof_H 	H 	0.4379	0.6922	0.4704	-0.12
Mof_H 	H 	0.478	0.6734	0.5491	0.008
Mof_H 	H 	0.3892	0.6897	0.5465	0.012
Mof_H 	H 	0.4322	0.678	0.5736	-0.01
Mof_H 	H 	0.3921	0.6968	0.4949	-0.001
Mof_H 	H 	0.4809	0.6805	0.4975	0
Mof_C 	C 	0.405	0.544	0.648	0.086
Mof_H 	H 	0.3956	0.4967	0.6754	-0.022
Mof_H 	H 	0.3656	0.5806	0.6609	-0.003
Mof_H 	H 	0.4544	0.5643	0.6635	0.01
Mof_H 	H 	0.4148	0.5977	0.6578	0.02
Mof_H 	H 	0.4448	0.5137	0.6724	0.004
Mof_H 	H 	0.356	0.5301	0.6697	0.005
Mof_C 	C 	0.393	0.541	0.471	-0.101
Mof_C 	C 	0.3974	0.531	0.55	-0.043
Mof_C 	C 	0.412	0.453	0.564	0.032
Mof_C 	C 	0.417	0.4159	0.493	-0.023
Mof_C 	C 	0.405	0.471	0.436	0.01
Mof_C 	C 	0.378	0.615	0.431	0.044
Mof_H 	H 	0.378	0.6073	0.3766	0.024
Mof_H 	H 	0.4178	0.6517	0.4445	-0.056
Mof_H 	H 	0.329	0.6353	0.4472	-0.001
Mof_H 	H 	0.3719	0.6556	0.4689	-0.012
Mof_H 	H 	0.3321	0.6112	0.4011	0.051
Mof_H 	H 	0.4209	0.6276	0.3984	-0.051
Mof_C 	C 	0.388	0.591	0.61	0.074
Mof_H 	H 	0.3784	0.6396	0.5853	0.033
Mof_H 	H 	0.4343	0.5943	0.64	-0.064
Mof_H 	H 	0.3455	0.578	0.6426	0.044
Mof_H 	H 	0.3938	0.5683	0.66	-0.053
Mof_H 	H 	0.3378	0.6136	0.6053	0.013
Mof_H 	H 	0.4266	0.6299	0.6026	-0.092
Mof_C 	C 	0.421	0.416	0.64	0.064
Mof_H 	H 	0.4154	0.4544	0.6798	0.033
Mof_H 	H 	0.4715	0.3934	0.6439	-0.023
Mof_H 	H 	0.3827	0.377	0.6466	-0.081
Mof_H 	H 	0.431	0.3622	0.6337	-0.033
Mof_H 	H 	0.3749	0.4232	0.6696	0.009
Mof_H 	H 	0.4637	0.4396	0.667	0.033
Mof_C 	C 	0.432	0.3329	0.481	0.166
Mof_H 	H 	0.4379	0.3078	0.5296	-0.14
Mof_H 	H 	0.478	0.3266	0.4509	0.002
Mof_H 	H 	0.3892	0.3103	0.4535	0.012
Mof_H 	H 	0.4322	0.322	0.4264	-0.026
Mof_H 	H 	0.3921	0.3032	0.5051	-0.008
Mof_H 	H 	0.4809	0.3195	0.5025	-0.004
Mof_C 	C 	0.405	0.456	0.352	0.09
Mof_H 	H 	0.3956	0.5033	0.3246	-0.021
Mof_H 	H 	0.3656	0.4194	0.3391	-0.02
Mof_H 	H 	0.4544	0.4357	0.3365	-0.006
Mof_H 	H 	0.4148	0.4023	0.3422	0.05
Mof_H 	H 	0.4448	0.4863	0.3276	0.006
Mof_H 	H 	0.356	0.4699	0.3303	0.004
Mof_C 	C 	0.529	0.607	0.541	-0.159
Mof_C 	C 	0.45	0.6026	0.531	-0.031
Mof_C 	C 	0.436	0.588	0.453	0.052
Mof_C 	C 	0.507	0.583	0.4159	-0.011
Mof_C 	C 	0.564	0.595	0.471	0.02
Mof_C 	C 	0.569	0.622	0.615	0.041
Mof_H 	H 	0.6234	0.622	0.6073	0.036
Mof_H 	H 	0.5555	0.5822	0.6517	-0.055
Mof_H 	H 	0.5528	0.671	0.6353	0.004
Mof_H 	H 	0.5311	0.6281	0.6556	-0.005
Mof_H 	H 	0.5989	0.6679	0.6112	0.045
Mof_H 	H 	0.6016	0.5791	0.6276	-0.048
Mof_C 	C 	0.39	0.612	0.591	0.073
Mof_H 	H 	0.4147	0.6216	0.6396	0.041
Mof_H 	H 	0.36	0.5657	0.5943	-0.086
Mof_H 	H 	0.3574	0.6545	0.578	0.039
Mof_H 	H 	0.34	0.6062	0.5683	-0.03
Mof_H 	H 	0.3947	0.6622	0.6136	0.011
Mof_H 	H 	0.3974	0.5734	0.6299	-0.081
Mof_C 	C 	0.36	0.579	0.416	0.058
Mof_H 	H 	0.3202	0.5846	0.4544	-0
Mof_H 	H 	0.3561	0.5285	0.3934	-0.013
Mof_H 	H 	0.3534	0.6173	0.377	-0.131
Mof_H 	H 	0.3663	0.569	0.3622	-0.027
Mof_H 	H 	0.3304	0.6251	0.4232	0.005
Mof_H 	H 	0.333	0.5363	0.4396	0.038
Mof_C 	C 	0.519	0.568	0.3329	0.161
Mof_H 	H 	0.4704	0.5621	0.3078	-0.135
Mof_H 	H 	0.5491	0.522	0.3266	0.008
Mof_H 	H 	0.5465	0.6108	0.3103	0.01
Mof_H 	H 	0.5736	0.5678	0.322	-0
Mof_H 	H 	0.4949	0.6079	0.3032	-0.001
Mof_H 	H 	0.4975	0.5191	0.3195	0.003
Mof_C 	C 	0.648	0.595	0.456	0.077
Mof_H 	H 	0.6754	0.6044	0.5033	-0.015
Mof_H 	H 	0.6609	0.6344	0.4194	-0.004
Mof_H 	H 	0.6635	0.5456	0.4357	0.015
Mof_H 	H 	0.6578	0.5852	0.4023	0.043
Mof_H 	H 	0.6724	0.5552	0.4863	0.005
Mof_H 	H 	0.6697	0.644	0.4699	0.014
Mof_C 	C 	0.471	0.607	0.459	-0.116
Mof_C 	C 	0.55	0.6026	0.469	-0.046
Mof_C 	C 	0.564	0.588	0.547	0.082
Mof_C 	C 	0.493	0.583	0.5841	-0.012
Mof_C 	C 	0.436	0.595	0.529	0.016
Mof_C 	C 	0.431	0.622	0.385	0.04
Mof_H 	H 	0.3766	0.622	0.3927	0.037
Mof_H 	H 	0.4445	0.5822	0.3483	-0.055
Mof_H 	H 	0.4472	0.671	0.3647	0.026
Mof_H 	H 	0.4689	0.6281	0.3444	-0.037
Mof_H 	H 	0.4011	0.6679	0.3888	0.024
Mof_H 	H 	0.3984	0.5791	0.3724	-0.05
Mof_C 	C 	0.61	0.612	0.409	0.083
Mof_H 	H 	0.5853	0.6216	0.3604	0.021
Mof_H 	H 	0.64	0.5657	0.4057	-0.069
Mof_H 	H 	0.6426	0.6545	0.422	0.022
Mof_H 	H 	0.66	0.6062	0.4317	-0.046
Mof_H 	H 	0.6053	0.6622	0.3864	0.014
Mof_H 	H 	0.6026	0.5734	0.3701	-0.083
Mof_C 	C 	0.64	0.579	0.584	0.062
Mof_H 	H 	0.6798	0.5846	0.5456	0.011
Mof_H 	H 	0.6439	0.5285	0.6066	-0.023
Mof_H 	H 	0.6466	0.6173	0.623	-0.102
Mof_H 	H 	0.6337	0.569	0.6378	-0.044
Mof_H 	H 	0.6696	0.6251	0.5768	0.004
Mof_H 	H 	0.667	0.5363	0.5604	0.045
Mof_C 	C 	0.481	0.568	0.6671	0.15
Mof_H 	H 	0.5296	0.5621	0.6922	-0.15
Mof_H 	H 	0.4509	0.522	0.6734	0.006
Mof_H 	H 	0.4535	0.6108	0.6897	0.028
Mof_H 	H 	0.4264	0.5678	0.678	-0.016
Mof_H 	H 	0.5051	0.6079	0.6968	-0.004
Mof_H 	H 	0.5025	0.5191	0.6805	0.008
Mof_C 	C 	0.352	0.595	0.544	0.073
Mof_H 	H 	0.3246	0.6044	0.4967	-0.012
Mof_H 	H 	0.3391	0.6344	0.5806	-0.02
Mof_H 	H 	0.3365	0.5456	0.5643	0.014
Mof_H 	H 	0.3422	0.5852	0.5977	0.06
Mof_H 	H 	0.3276	0.5552	0.5137	0.009
Mof_H 	H 	0.3303	0.644	0.5301	0.016
Mof_C 	C 	0.529	0.393	0.459	-0.116
Mof_C 	C 	0.45	0.3974	0.469	-0.014
Mof_C 	C 	0.436	0.412	0.547	0.024
Mof_C 	C 	0.507	0.417	0.5841	-0.029
Mof_C 	C 	0.564	0.405	0.529	0.007
Mof_C 	C 	0.569	0.378	0.385	0.04
Mof_H 	H 	0.6234	0.378	0.3927	0.054
Mof_H 	H 	0.5555	0.4178	0.3483	-0.058
Mof_H 	H 	0.5528	0.329	0.3647	0.007
Mof_H 	H 	0.5311	0.3719	0.3444	-0.015
Mof_H 	H 	0.5989	0.3321	0.3888	0.034
Mof_H 	H 	0.6016	0.4209	0.3724	-0.061
Mof_C 	C 	0.39	0.388	0.409	0.067
Mof_H 	H 	0.4147	0.3784	0.3604	0.042
Mof_H 	H 	0.36	0.4343	0.4057	-0.059
Mof_H 	H 	0.3574	0.3455	0.422	0.025
Mof_H 	H 	0.34	0.3938	0.4317	-0.028
Mof_H 	H 	0.3947	0.3378	0.3864	0.005
Mof_H 	H 	0.3974	0.4266	0.3701	-0.086
Mof_C 	C 	0.36	0.421	0.584	0.061
Mof_H 	H 	0.3202	0.4154	0.5456	0.017
Mof_H 	H 	0.3561	0.4715	0.6066	0.008
Mof_H 	H 	0.3534	0.3827	0.623	-0.083
Mof_H 	H 	0.3663	0.431	0.6378	-0.058
Mof_H 	H 	0.3304	0.3749	0.5768	-0.007
Mof_H 	H 	0.333	0.4637	0.5604	0.032
Mof_C 	C 	0.519	0.432	0.6671	0.15
Mof_H 	H 	0.4704	0.4379	0.6922	-0.12
Mof_H 	H 	0.5491	0.478	0.6734	0.008
Mof_H 	H 	0.5465	0.3892	0.6897	0.012
Mof_H 	H 	0.5736	0.4322	0.678	-0.01
Mof_H 	H 	0.4949	0.3921	0.6968	-0.001
Mof_H 	H 	0.4975	0.4809	0.6805	0
Mof_C 	C 	0.648	0.405	0.544	0.086
Mof_H 	H 	0.6754	0.3956	0.4967	-0.022
Mof_H 	H 	0.6609	0.3656	0.5806	-0.003
Mof_H 	H 	0.6635	0.4544	0.5643	0.01
Mof_H 	H 	0.6578	0.4148	0.5977	0.02
Mof_H 	H 	0.6724	0.4448	0.5137	0.004
Mof_H 	H 	0.6697	0.356	0.5301	0.005
Mof_C 	C 	0.471	0.393	0.541	-0.101
Mof_C 	C 	0.55	0.3974	0.531	-0.043
Mof_C 	C 	0.564	0.412	0.453	0.032
Mof_C 	C 	0.493	0.417	0.4159	-0.023
Mof_C 	C 	0.436	0.405	0.471	0.01
Mof_C 	C 	0.431	0.378	0.615	0.044
Mof_H 	H 	0.3766	0.378	0.6073	0.024
Mof_H 	H 	0.4445	0.4178	0.6517	-0.056
Mof_H 	H 	0.4472	0.329	0.6353	-0.001
Mof_H 	H 	0.4689	0.3719	0.6556	-0.012
Mof_H 	H 	0.4011	0.3321	0.6112	0.051
Mof_H 	H 	0.3984	0.4209	0.6276	-0.051
Mof_C 	C 	0.61	0.388	0.591	0.074
Mof_H 	H 	0.5853	0.3784	0.6396	0.033
Mof_H 	H 	0.64	0.4343	0.5943	-0.064
Mof_H 	H 	0.6426	0.3455	0.578	0.044
Mof_H 	H 	0.66	0.3938	0.5683	-0.053
Mof_H 	H 	0.6053	0.3378	0.6136	0.013
Mof_H 	H 	0.6026	0.4266	0.6299	-0.092
Mof_C 	C 	0.64	0.421	0.416	0.064
Mof_H 	H 	0.6798	0.4154	0.4544	0.033
Mof_H 	H 	0.6439	0.4715	0.3934	-0.023
Mof_H 	H 	0.6466	0.3827	0.377	-0.081
Mof_H 	H 	0.6337	0.431	0.3622	-0.033
Mof_H 	H 	0.6696	0.3749	0.4232	0.009
Mof_H 	H 	0.667	0.4637	0.4396	0.033
Mof_C 	C 	0.481	0.432	0.3329	0.166
Mof_H 	H 	0.5296	0.4379	0.3078	-0.14
Mof_H 	H 	0.4509	0.478	0.3266	0.002
Mof_H 	H 	0.4535	0.3892	0.3103	0.012
Mof_H 	H 	0.4264	0.4322	0.322	-0.026
Mof_H 	H 	0.5051	0.3921	0.3032	-0.008
Mof_H 	H 	0.5025	0.4809	0.3195	-0.004
Mof_C 	C 	0.352	0.405	0.456	0.09
Mof_H 	H 	0.3246	0.3956	0.5033	-0.021
Mof_H 	H 	0.3391	0.3656	0.4194	-0.02
Mof_H 	H 	0.3365	0.4544	0.4357	-0.006
Mof_H 	H 	0.3422	0.4148	0.4023	0.05
Mof_H 	H 	0.3276	0.4448	0.4863	0.006
Mof_H 	H 	0.3303	0.356	0.4699	0.004
Mof_C 	C 	0.459	0.471	0.393	-0.087
Mof_C 	C 	0.469	0.55	0.3974	-0.036
Mof_C 	C 	0.547	0.564	0.412	0.043
Mof_C 	C 	0.5841	0.493	0.417	-0.026
Mof_C 	C 	0.529	0.436	0.405	0.007
Mof_C 	C 	0.385	0.431	0.378	0.042
Mof_H 	H 	0.3927	0.3766	0.378	0.04
Mof_H 	H 	0.3483	0.4445	0.4178	-0.057
Mof_H 	H 	0.3647	0.4472	0.329	0.014
Mof_H 	H 	0.3444	0.4689	0.3719	-0.03
Mof_H 	H 	0.3888	0.4011	0.3321	0.032
Mof_H 	H 	0.3724	0.3984	0.4209	-0.057
Mof_C 	C 	0.409	0.61	0.388	0.075
Mof_H 	H 	0.3604	0.5853	0.3784	0.027
Mof_H 	H 	0.4057	0.64	0.4343	-0.053
Mof_H 	H 	0.422	0.6426	0.3455	0.025
Mof_H 	H 	0.4317	0.66	0.3938	-0.048
Mof_H 	H 	0.3864	0.6053	0.3378	0.01
Mof_H 	H 	0.3701	0.6026	0.4266	-0.09
Mof_C 	C 	0.584	0.64	0.421	0.064
Mof_H 	H 	0.5456	0.6798	0.4154	0.031
Mof_H 	H 	0.6066	0.6439	0.4715	-0.012
Mof_H 	H 	0.623	0.6466	0.3827	-0.067
Mof_H 	H 	0.6378	0.6337	0.431	-0.054
Mof_H 	H 	0.5768	0.6696	0.3749	0.001
Mof_H 	H 	0.5604	0.667	0.4637	0.036
Mof_C 	C 	0.6671	0.481	0.432	0.152
Mof_H 	H 	0.6922	0.5296	0.4379	-0.137
Mof_H 	H 	0.6734	0.4509	0.478	0.004
Mof_H 	H 	0.6897	0.4535	0.3892	0.021
Mof_H 	H 	0.678	0.4264	0.4322	-0.026
Mof_H 	H 	0.6968	0.5051	0.3921	-0.006
Mof_H 	H 	0.6805	0.5025	0.4809	0.001
Mof_C 	C 	0.544	0.352	0.405	0.086
Mof_H 	H 	0.4967	0.3246	0.3956	-0.02
Mof_H 	H 	0.5806	0.3391	0.3656	-0.019
Mof_H 	H 	0.5643	0.3365	0.4544	0.001
Mof_H 	H 	0.5977	0.3422	0.4148	0.043
Mof_H 	H 	0.5137	0.3276	0.4448	0.007
Mof_H 	H 	0.5301	0.3303	0.356	0.005
Mof_C 	C 	0.541	0.529	0.393	-0.129
Mof_C 	C 	0.531	0.45	0.3974	-0.021
Mof_C 	C 	0.453	0.436	0.412	0.013
Mof_C 	C 	0.4159	0.507	0.417	-0.025
Mof_C 	C 	0.471	0.564	0.405	0.011
Mof_C 	C 	0.615	0.569	0.378	0.043
Mof_H 	H 	0.6073	0.6234	0.378	0.038
Mof_H 	H 	0.6517	0.5555	0.4178	-0.057
Mof_H 	H 	0.6353	0.5528	0.329	-0.008
Mof_H 	H 	0.6556	0.5311	0.3719	0.002
Mof_H 	H 	0.6112	0.5989	0.3321	0.052
Mof_H 	H 	0.6276	0.6016	0.4209	-0.055
Mof_C 	C 	0.591	0.39	0.388	0.066
Mof_H 	H 	0.6396	0.4147	0.3784	0.048
Mof_H 	H 	0.5943	0.36	0.4343	-0.07
Mof_H 	H 	0.578	0.3574	0.3455	0.043
Mof_H 	H 	0.5683	0.34	0.3938	-0.033
Mof_H 	H 	0.6136	0.3947	0.3378	0.007
Mof_H 	H 	0.6299	0.3974	0.4266	-0.088
Mof_C 	C 	0.416	0.36	0.421	0.061
Mof_H 	H 	0.4544	0.3202	0.4154	0.019
Mof_H 	H 	0.3934	0.3561	0.4715	-0.003
Mof_H 	H 	0.377	0.3534	0.3827	-0.097
Mof_H 	H 	0.3622	0.3663	0.431	-0.037
Mof_H 	H 	0.4232	0.3304	0.3749	0.001
Mof_H 	H 	0.4396	0.333	0.4637	0.029
Mof_C 	C 	0.3329	0.519	0.432	0.164
Mof_H 	H 	0.3078	0.4704	0.4379	-0.123
Mof_H 	H 	0.3266	0.5491	0.478	0.006
Mof_H 	H 	0.3103	0.5465	0.3892	0.003
Mof_H 	H 	0.322	0.5736	0.4322	-0.01
Mof_H 	H 	0.3032	0.4949	0.3921	-0.003
Mof_H 	H 	0.3195	0.4975	0.4809	-0.004
Mof_C 	C 	0.456	0.648	0.405	0.09
Mof_H 	H 	0.5033	0.6754	0.3956	-0.023
Mof_H 	H 	0.4194	0.6609	0.3656	-0.004
Mof_H 	H 	0.4357	0.6635	0.4544	0.003
Mof_H 	H 	0.4023	0.6578	0.4148	0.027
Mof_H 	H 	0.4863	0.6724	0.4448	0.003
Mof_H 	H 	0.4699	0.6697	0.356	0.003
Mof_C 	C 	0.541	0.471	0.607	-0.13
Mof_C 	C 	0.531	0.55	0.6026	-0.053
Mof_C 	C 	0.453	0.564	0.588	0.07
Mof_C 	C 	0.4159	0.493	0.583	-0.008
Mof_C 	C 	0.471	0.436	0.595	0.02
Mof_C 	C 	0.615	0.431	0.622	0.042
Mof_H 	H 	0.6073	0.3766	0.622	0.022
Mof_H 	H 	0.6517	0.4445	0.5822	-0.054
Mof_H 	H 	0.6353	0.4472	0.671	0.011
Mof_H 	H 	0.6556	0.4689	0.6281	-0.019
Mof_H 	H 	0.6112	0.4011	0.6679	0.043
Mof_H 	H 	0.6276	0.3984	0.5791	-0.044
Mof_C 	C 	0.591	0.61	0.612	0.081
Mof_H 	H 	0.6396	0.5853	0.6216	0.027
Mof_H 	H 	0.5943	0.64	0.5657	-0.08
Mof_H 	H 	0.578	0.6426	0.6545	0.04
Mof_H 	H 	0.5683	0.66	0.6062	-0.051
Mof_H 	H 	0.6136	0.6053	0.6622	0.017
Mof_H 	H 	0.6299	0.6026	0.5734	-0.085
Mof_C 	C 	0.416	0.64	0.579	0.061
Mof_H 	H 	0.4544	0.6798	0.5846	0.013
Mof_H 	H 	0.3934	0.6439	0.5285	-0.034
Mof_H 	H 	0.377	0.6466	0.6173	-0.115
Mof_H 	H 	0.3622	0.6337	0.569	-0.023
Mof_H 	H 	0.4232	0.6696	0.6251	0.012
Mof_H 	H 	0.4396	0.667	0.5363	0.043
Mof_C 	C 	0.3329	0.481	0.568	0.164
Mof_H 	H 	0.3078	0.5296	0.5621	-0.153
Mof_H 	H 	0.3266	0.4509	0.522	0.004
Mof_H 	H 	0.3103	0.4535	0.6108	0.019
Mof_H 	H 	0.322	0.4264	0.5678	-0.017
Mof_H 	H 	0.3032	0.5051	0.6079	-0.006
Mof_H 	H 	0.3195	0.5025	0.5191	0.004
Mof_C 	C 	0.456	0.352	0.595	0.077
Mof_H 	H 	0.5033	0.3246	0.6044	-0.014
Mof_H 	H 	0.4194	0.3391	0.6344	-0.021
Mof_H 	H 	0.4357	0.3365	0.5456	0.006
Mof_H 	H 	0.4023	0.3422	0.5852	0.066
Mof_H 	H 	0.4863	0.3276	0.5552	0.008
Mof_H 	H 	0.4699	0.3303	0.644	0.015
Mof_C 	C 	0.459	0.529	0.607	-0.145
Mof_C 	C 	0.469	0.45	0.6026	-0.024
Mof_C 	C 	0.547	0.436	0.588	0.063
Mof_C 	C 	0.5841	0.507	0.583	-0.015
Mof_C 	C 	0.529	0.564	0.595	0.016
Mof_C 	C 	0.385	0.569	0.622	0.038
Mof_H 	H 	0.3927	0.6234	0.622	0.051
Mof_H 	H 	0.3483	0.5555	0.5822	-0.056
Mof_H 	H 	0.3647	0.5528	0.671	0.019
Mof_H 	H 	0.3444	0.5311	0.6281	-0.022
Mof_H 	H 	0.3888	0.5989	0.6679	0.026
Mof_H 	H 	0.3724	0.6016	0.5791	-0.054
Mof_C 	C 	0.409	0.39	0.612	0.074
Mof_H 	H 	0.3604	0.4147	0.6216	0.035
Mof_H 	H 	0.4057	0.36	0.5657	-0.075
Mof_H 	H 	0.422	0.3574	0.6545	0.021
Mof_H 	H 	0.4317	0.34	0.6062	-0.025
Mof_H 	H 	0.3864	0.3947	0.6622	0.009
Mof_H 	H 	0.3701	0.3974	0.5734	-0.079
Mof_C 	C 	0.584	0.36	0.579	0.059
Mof_H 	H 	0.5456	0.3202	0.5846	-0.002
Mof_H 	H 	0.6066	0.3561	0.5285	-0.002
Mof_H 	H 	0.623	0.3534	0.6173	-0.117
Mof_H 	H 	0.6378	0.3663	0.569	-0.048
Mof_H 	H 	0.5768	0.3304	0.6251	-0.004
Mof_H 	H 	0.5604	0.333	0.5363	0.041
Mof_C 	C 	0.6671	0.519	0.568	0.147
Mof_H 	H 	0.6922	0.4704	0.5621	-0.132
Mof_H 	H 	0.6734	0.5491	0.522	0.01
Mof_H 	H 	0.6897	0.5465	0.6108	0.019
Mof_H 	H 	0.678	0.5736	0.5678	-0
Mof_H 	H 	0.6968	0.4949	0.6079	0.001
Mof_H 	H 	0.6805	0.4975	0.5191	0.008
Mof_C 	C 	0.544	0.648	0.595	0.073
Mof_H 	H 	0.4967	0.6754	0.6044	-0.014
Mof_H 	H 	0.5806	0.6609	0.6344	-0.003
Mof_H 	H 	0.5643	0.6635	0.5456	0.023
Mof_H 	H 	0.5977	0.6578	0.5852	0.037
Mof_H 	H 	0.5137	0.6724	0.5552	0.006
Mof_H 	H 	0.5301	0.6697	0.644	0.016
Mof_C 	C 	0.393	0.459	0.471	-0.087
Mof_C 	C 	0.3974	0.469	0.55	-0.036
Mof_C 	C 	0.412	0.547	0.564	0.043
Mof_C 	C 	0.417	0.5841	0.493	-0.026
Mof_C 	C 	0.405	0.529	0.436	0.007
Mof_C 	C 	0.378	0.385	0.431	0.042
Mof_H 	H 	0.378	0.3927	0.3766	0.04
Mof_H 	H 	0.4178	0.3483	0.4445	-0.057
Mof_H 	H 	0.329	0.3647	0.4472	0.014
Mof_H 	H 	0.3719	0.3444	0.4689	-0.03
Mof_H 	H 	0.3321	0.3888	0.4011	0.032
Mof_H 	H 	0.4209	0.3724	0.3984	-0.057
Mof_C 	C 	0.388	0.409	0.61	0.075
Mof_H 	H 	0.3784	0.3604	0.5853	0.027
Mof_H 	H 	0.4343	0.4057	0.64	-0.053
Mof_H 	H 	0.3455	0.422	0.6426	0.025
Mof_H 	H 	0.3938	0.4317	0.66	-0.048
Mof_H 	H 	0.3378	0.3864	0.6053	0.01
Mof_H 	H 	0.4266	0.3701	0.6026	-0.09
Mof_C 	C 	0.421	0.584	0.64	0.064
Mof_H 	H 	0.4154	0.5456	0.6798	0.031
Mof_H 	H 	0.4715	0.6066	0.6439	-0.012
Mof_H 	H 	0.3827	0.623	0.6466	-0.067
Mof_H 	H 	0.431	0.6378	0.6337	-0.054
Mof_H 	H 	0.3749	0.5768	0.6696	0.001
Mof_H 	H 	0.4637	0.5604	0.667	0.036
Mof_C 	C 	0.432	0.6671	0.481	0.152
Mof_H 	H 	0.4379	0.6922	0.5296	-0.137
Mof_H 	H 	0.478	0.6734	0.4509	0.004
Mof_H 	H 	0.3892	0.6897	0.4535	0.021
Mof_H 	H 	0.4322	0.678	0.4264	-0.026
Mof_H 	H 	0.3921	0.6968	0.5051	-0.006
Mof_H 	H 	0.4809	0.6805	0.5025	0.001
Mof_C 	C 	0.405	0.544	0.352	0.086
Mof_H 	H 	0.3956	0.4967	0.3246	-0.02
Mof_H 	H 	0.3656	0.5806	0.3391	-0.019
Mof_H 	H 	0.4544	0.5643	0.3365	0.001
Mof_H 	H 	0.4148	0.5977	0.3422	0.043
Mof_H 	H 	0.4448	0.5137	0.3276	0.007
Mof_H 	H 	0.356	0.5301	0.3303	0.005
Mof_C 	C 	0.393	0.541	0.529	-0.129
Mof_C 	C 	0.3974	0.531	0.45	-0.021
Mof_C 	C 	0.412	0.453	0.436	0.013
Mof_C 	C 	0.417	0.4159	0.507	-0.025
Mof_C 	C 	0.405	0.471	0.564	0.011
Mof_C 	C 	0.378	0.615	0.569	0.043
Mof_H 	H 	0.378	0.6073	0.6234	0.038
Mof_H 	H 	0.4178	0.6517	0.5555	-0.057
Mof_H 	H 	0.329	0.6353	0.5528	-0.008
Mof_H 	H 	0.3719	0.6556	0.5311	0.002
Mof_H 	H 	0.3321	0.6112	0.5989	0.052
Mof_H 	H 	0.4209	0.6276	0.6016	-0.055
Mof_C 	C 	0.388	0.591	0.39	0.066
Mof_H 	H 	0.3784	0.6396	0.4147	0.048
Mof_H 	H 	0.4343	0.5943	0.36	-0.07
Mof_H 	H 	0.3455	0.578	0.3574	0.043
Mof_H 	H 	0.3938	0.5683	0.34	-0.033
Mof_H 	H 	0.3378	0.6136	0.3947	0.007
Mof_H 	H 	0.4266	0.6299	0.3974	-0.088
Mof_C 	C 	0.421	0.416	0.36	0.061
Mof_H 	H 	0.4154	0.4544	0.3202	0.019
Mof_H 	H 	0.4715	0.3934	0.3561	-0.003
Mof_H 	H 	0.3827	0.377	0.3534	-0.097
Mof_H 	H 	0.431	0.3622	0.3663	-0.037
Mof_H 	H 	0.3749	0.4232	0.3304	0.001
Mof_H 	H 	0.4637	0.4396	0.333	0.029
Mof_C 	C 	0.432	0.3329	0.519	0.164
Mof_H 	H 	0.4379	0.3078	0.4704	-0.123
Mof_H 	H 	0.478	0.3266	0.5491	0.006
Mof_H 	H 	0.3892	0.3103	0.5465	0.003
Mof_H 	H 	0.4322	0.322	0.5736	-0.01
Mof_H 	H 	0.3921	0.3032	0.4949	-0.003
Mof_H 	H 	0.4809	0.3195	0.4975	-0.004
Mof_C 	C 	0.405	0.456	0.648	0.09
Mof_H 	H 	0.3956	0.5033	0.6754	-0.023
Mof_H 	H 	0.3656	0.4194	0.6609	-0.004
Mof_H 	H 	0.4544	0.4357	0.6635	0.003
Mof_H 	H 	0.4148	0.4023	0.6578	0.027
Mof_H 	H 	0.4448	0.4863	0.6724	0.003
Mof_H 	H 	0.356	0.4699	0.6697	0.003
Mof_C 	C 	0.607	0.541	0.471	-0.13
Mof_C 	C 	0.6026	0.531	0.55	-0.053
Mof_C 	C 	0.588	0.453	0.564	0.07
Mof_C 	C 	0.583	0.4159	0.493	-0.008
Mof_C 	C 	0.595	0.471	0.436	0.02
Mof_C 	C 	0.622	0.615	0.431	0.042
Mof_H 	H 	0.622	0.6073	0.3766	0.022
Mof_H 	H 	0.5822	0.6517	0.4445	-0.054
Mof_H 	H 	0.671	0.6353	0.4472	0.011
Mof_H 	H 	0.6281	0.6556	0.4689	-0.019
Mof_H 	H 	0.6679	0.6112	0.4011	0.043
Mof_H 	H 	0.5791	0.6276	0.3984	-0.044
Mof_C 	C 	0.612	0.591	0.61	0.081
Mof_H 	H 	0.6216	0.6396	0.5853	0.027
Mof_H 	H 	0.5657	0.5943	0.64	-0.08
Mof_H 	H 	0.6545	0.578	0.6426	0.04
Mof_H 	H 	0.6062	0.5683	0.66	-0.051
Mof_H 	H 	0.6622	0.6136	0.6053	0.017
Mof_H 	H 	0.5734	0.6299	0.6026	-0.085
Mof_C 	C 	0.579	0.416	0.64	0.061
Mof_H 	H 	0.5846	0.4544	0.6798	0.013
Mof_H 	H 	0.5285	0.3934	0.6439	-0.034
Mof_H 	H 	0.6173	0.377	0.6466	-0.115
Mof_H 	H 	0.569	0.3622	0.6337	-0.023
Mof_H 	H 	0.6251	0.4232	0.6696	0.012
Mof_H 	H 	0.5363	0.4396	0.667	0.043
Mof_C 	C 	0.568	0.3329	0.481	0.164
Mof_H 	H 	0.5621	0.3078	0.5296	-0.153
Mof_H 	H 	0.522	0.3266	0.4509	0.004
Mof_H 	H 	0.6108	0.3103	0.4535	0.019
Mof_H 	H 	0.5678	0.322	0.4264	-0.017
Mof_H 	H 	0.6079	0.3032	0.5051	-0.006
Mof_H 	H 	0.5191	0.3195	0.5025	0.004
Mof_C 	C 	0.595	0.456	0.352	0.077
Mof_H 	H 	0.6044	0.5033	0.3246	-0.014
Mof_H 	H 	0.6344	0.4194	0.3391	-0.021
Mof_H 	H 	0.5456	0.4357	0.3365	0.006
Mof_H 	H 	0.5852	0.4023	0.3422	0.066
Mof_H 	H 	0.5552	0.4863	0.3276	0.008
Mof_H 	H 	0.644	0.4699	0.3303	0.015
Mof_C 	C 	0.607	0.459	0.529	-0.145
Mof_C 	C 	0.6026	0.469	0.45	-0.024
Mof_C 	C 	0.588	0.547	0.436	0.063
Mof_C 	C 	0.583	0.5841	0.507	-0.015
Mof_C 	C 	0.595	0.529	0.564	0.016
Mof_C 	C 	0.622	0.385	0.569	0.038
Mof_H 	H 	0.622	0.3927	0.6234	0.051
Mof_H 	H 	0.5822	0.3483	0.5555	-0.056
Mof_H 	H 	0.671	0.3647	0.5528	0.019
Mof_H 	H 	0.6281	0.3444	0.5311	-0.022
Mof_H 	H 	0.6679	0.3888	0.5989	0.026
Mof_H 	H 	0.5791	0.3724	0.6016	-0.054
Mof_C 	C 	0.612	0.409	0.39	0.074
Mof_H 	H 	0.6216	0.3604	0.4147	0.035
Mof_H 	H 	0.5657	0.4057	0.36	-0.075
Mof_H 	H 	0.6545	0.422	0.3574	0.021
Mof_H 	H 	0.6062	0.4317	0.34	-0.025
Mof_H 	H 	0.6622	0.3864	0.3947	0.009
Mof_H 	H 	0.5734	0.3701	0.3974	-0.079
Mof_C 	C 	0.579	0.584	0.36	0.059
Mof_H 	H 	0.5846	0.5456	0.3202	-0.002
Mof_H 	H 	0.5285	0.6066	0.3561	-0.002
Mof_H 	H 	0.6173	0.623	0.3534	-0.117
Mof_H 	H 	0.569	0.6378	0.3663	-0.048
Mof_H 	H 	0.6251	0.5768	0.3304	-0.004
Mof_H 	H 	0.5363	0.5604	0.333	0.041
Mof_C 	C 	0.568	0.6671	0.519	0.147
Mof_H 	H 	0.5621	0.6922	0.4704	-0.132
Mof_H 	H 	0.522	0.6734	0.5491	0.01
Mof_H 	H 	0.6108	0.6897	0.5465	0.019
Mof_H 	H 	0.5678	0.678	0.5736	-0
Mof_H 	H 	0.6079	0.6968	0.4949	0.001
Mof_H 	H 	0.5191	0.6805	0.4975	0.008
Mof_C 	C 	0.595	0.544	0.648	0.073
Mof_H 	H 	0.6044	0.4967	0.6754	-0.014
Mof_H 	H 	0.6344	0.5806	0.6609	-0.003
Mof_H 	H 	0.5456	0.5643	0.6635	0.023
Mof_H 	H 	0.5852	0.5977	0.6578	0.037
Mof_H 	H 	0.5552	0.5137	0.6724	0.006
Mof_H 	H 	0.644	0.5301	0.6697	0.016
Mof_C 	C 	0.471	0.393	0.459	-0.087
Mof_C 	C 	0.55	0.3974	0.469	-0.036
Mof_C 	C 	0.564	0.412	0.547	0.043
Mof_C 	C 	0.493	0.417	0.5841	-0.026
Mof_C 	C 	0.436	0.405	0.529	0.007
Mof_C 	C 	0.431	0.378	0.385	0.042
Mof_H 	H 	0.3766	0.378	0.3927	0.04
Mof_H 	H 	0.4445	0.4178	0.3483	-0.057
Mof_H 	H 	0.4472	0.329	0.3647	0.014
Mof_H 	H 	0.4689	0.3719	0.3444	-0.03
Mof_H 	H 	0.4011	0.3321	0.3888	0.032
Mof_H 	H 	0.3984	0.4209	0.3724	-0.057
Mof_C 	C 	0.61	0.388	0.409	0.075
Mof_H 	H 	0.5853	0.3784	0.3604	0.027
Mof_H 	H 	0.64	0.4343	0.4057	-0.053
Mof_H 	H 	0.6426	0.3455	0.422	0.025
Mof_H 	H 	0.66	0.3938	0.4317	-0.048
Mof_H 	H 	0.6053	0.3378	0.3864	0.01
Mof_H 	H 	0.6026	0.4266	0.3701	-0.09
Mof_C 	C 	0.64	0.421	0.584	0.064
Mof_H 	H 	0.6798	0.4154	0.5456	0.031
Mof_H 	H 	0.6439	0.4715	0.6066	-0.012
Mof_H 	H 	0.6466	0.3827	0.623	-0.067
Mof_H 	H 	0.6337	0.431	0.6378	-0.054
Mof_H 	H 	0.6696	0.3749	0.5768	0.001
Mof_H 	H 	0.667	0.4637	0.5604	0.036
Mof_C 	C 	0.481	0.432	0.6671	0.152
Mof_H 	H 	0.5296	0.4379	0.6922	-0.137
Mof_H 	H 	0.4509	0.478	0.6734	0.004
Mof_H 	H 	0.4535	0.3892	0.6897	0.021
Mof_H 	H 	0.4264	0.4322	0.678	-0.026
Mof_H 	H 	0.5051	0.3921	0.6968	-0.006
Mof_H 	H 	0.5025	0.4809	0.6805	0.001
Mof_C 	C 	0.352	0.405	0.544	0.086
Mof_H 	H 	0.3246	0.3956	0.4967	-0.02
Mof_H 	H 	0.3391	0.3656	0.5806	-0.019
Mof_H 	H 	0.3365	0.4544	0.5643	0.001
Mof_H 	H 	0.3422	0.4148	0.5977	0.043
Mof_H 	H 	0.3276	0.4448	0.5137	0.007
Mof_H 	H 	0.3303	0.356	0.5301	0.005
Mof_C 	C 	0.529	0.393	0.541	-0.129
Mof_C 	C 	0.45	0.3974	0.531	-0.021
Mof_C 	C 	0.436	0.412	0.453	0.013
Mof_C 	C 	0.507	0.417	0.4159	-0.025
Mof_C 	C 	0.564	0.405	0.471	0.011
Mof_C 	C 	0.569	0.378	0.615	0.043
Mof_H 	H 	0.6234	0.378	0.6073	0.038
Mof_H 	H 	0.5555	0.4178	0.6517	-0.057
Mof_H 	H 	0.5528	0.329	0.6353	-0.008
Mof_H 	H 	0.5311	0.3719	0.6556	0.002
Mof_H 	H 	0.5989	0.3321	0.6112	0.052
Mof_H 	H 	0.6016	0.4209	0.6276	-0.055
Mof_C 	C 	0.39	0.388	0.591	0.066
Mof_H 	H 	0.4147	0.3784	0.6396	0.048
Mof_H 	H 	0.36	0.4343	0.5943	-0.07
Mof_H 	H 	0.3574	0.3455	0.578	0.043
Mof_H 	H 	0.34	0.3938	0.5683	-0.033
Mof_H 	H 	0.3947	0.3378	0.6136	0.007
Mof_H 	H 	0.3974	0.4266	0.6299	-0.088
Mof_C 	C 	0.36	0.421	0.416	0.061
Mof_H 	H 	0.3202	0.4154	0.4544	0.019
Mof_H 	H 	0.3561	0.4715	0.3934	-0.003
Mof_H 	H 	0.3534	0.3827	0.377	-0.097
Mof_H 	H 	0.3663	0.431	0.3622	-0.037
Mof_H 	H 	0.3304	0.3749	0.4232	0.001
Mof_H 	H 	0.333	0.4637	0.4396	0.029
Mof_C 	C 	0.519	0.432	0.3329	0.164
Mof_H 	H 	0.4704	0.4379	0.3078	-0.123
Mof_H 	H 	0.5491	0.478	0.3266	0.006
Mof_H 	H 	0.5465	0.3892	0.3103	0.003
Mof_H 	H 	0.5736	0.4322	0.322	-0.01
Mof_H 	H 	0.4949	0.3921	0.3032	-0.003
Mof_H 	H 	0.4975	0.4809	0.3195	-0.004
Mof_C 	C 	0.648	0.405	0.456	0.09
Mof_H 	H 	0.6754	0.3956	0.5033	-0.023
Mof_H 	H 	0.6609	0.3656	0.4194	-0.004
Mof_H 	H 	0.6635	0.4544	0.4357	0.003
Mof_H 	H 	0.6578	0.4148	0.4023	0.027
Mof_H 	H 	0.6724	0.4448	0.4863	0.003
Mof_H 	H 	0.6697	0.356	0.4699	0.003
Mof_C 	C 	0.471	0.607	0.541	-0.13
Mof_C 	C 	0.55	0.6026	0.531	-0.053
Mof_C 	C 	0.564	0.588	0.453	0.07
Mof_C 	C 	0.493	0.583	0.4159	-0.008
Mof_C 	C 	0.436	0.595	0.471	0.02
Mof_C 	C 	0.431	0.622	0.615	0.042
Mof_H 	H 	0.3766	0.622	0.6073	0.022
Mof_H 	H 	0.4445	0.5822	0.6517	-0.054
Mof_H 	H 	0.4472	0.671	0.6353	0.011
Mof_H 	H 	0.4689	0.6281	0.6556	-0.019
Mof_H 	H 	0.4011	0.6679	0.6112	0.043
Mof_H 	H 	0.3984	0.5791	0.6276	-0.044
Mof_C 	C 	0.61	0.612	0.591	0.081
Mof_H 	H 	0.5853	0.6216	0.6396	0.027
Mof_H 	H 	0.64	0.5657	0.5943	-0.08
Mof_H 	H 	0.6426	0.6545	0.578	0.04
Mof_H 	H 	0.66	0.6062	0.5683	-0.051
Mof_H 	H 	0.6053	0.6622	0.6136	0.017
Mof_H 	H 	0.6026	0.5734	0.6299	-0.085
Mof_C 	C 	0.64	0.579	0.416	0.061
Mof_H 	H 	0.6798	0.5846	0.4544	0.013
Mof_H 	H 	0.6439	0.5285	0.3934	-0.034
Mof_H 	H 	0.6466	0.6173	0.377	-0.115
Mof_H 	H 	0.6337	0.569	0.3622	-0.023
Mof_H 	H 	0.6696	0.6251	0.4232	0.012
Mof_H 	H 	0.667	0.5363	0.4396	0.043
Mof_C 	C 	0.481	0.568	0.3329	0.164
Mof_H 	H 	0.5296	0.5621	0.3078	-0.153
Mof_H 	H 	0.4509	0.522	0.3266	0.004
Mof_H 	H 	0.4535	0.6108	0.3103	0.019
Mof_H 	H 	0.4264	0.5678	0.322	-0.017
Mof_H 	H 	0.5051	0.6079	0.3032	-0.006
Mof_H 	H 	0.5025	0.5191	0.3195	0.004
Mof_C 	C 	0.352	0.595	0.456	0.077
Mof_H 	H 	0.3246	0.6044	0.5033	-0.014
Mof_H 	H 	0.3391	0.6344	0.4194	-0.021
Mof_H 	H 	0.3365	0.5456	0.4357	0.006
Mof_H 	H 	0.3422	0.5852	0.4023	0.066
Mof_H 	H 	0.3276	0.5552	0.4863	0.008
Mof_H 	H 	0.3303	0.644	0.4699	0.015
Mof_C 	C 	0.529	0.607	0.459	-0.145
Mof_C 	C 	0.45	0.6026	0.469	-0.024
Mof_C 	C 	0.436	0.588	0.547	0.063
Mof_C 	C 	0.507	0.583	0.5841	-0.015
Mof_C 	C 	0.564	0.595	0.529	0.016
Mof_C 	C 	0.569	0.622	0.385	0.038
Mof_H 	H 	0.6234	0.622	0.3927	0.051
Mof_H 	H 	0.5555	0.5822	0.3483	-0.056
Mof_H 	H 	0.5528	0.671	0.3647	0.019
Mof_H 	H 	0.5311	0.6281	0.3444	-0.022
Mof_H 	H 	0.5989	0.6679	0.3888	0.026
Mof_H 	H 	0.6016	0.5791	0.3724	-0.054
Mof_C 	C 	0.39	0.612	0.409	0.074
Mof_H 	H 	0.4147	0.6216	0.3604	0.035
Mof_H 	H 	0.36	0.5657	0.4057	-0.075
Mof_H 	H 	0.3574	0.6545	0.422	0.021
Mof_H 	H 	0.34	0.6062	0.4317	-0.025
Mof_H 	H 	0.3947	0.6622	0.3864	0.009
Mof_H 	H 	0.3974	0.5734	0.3701	-0.079
Mof_C 	C 	0.36	0.579	0.584	0.059
Mof_H 	H 	0.3202	0.5846	0.5456	-0.002
Mof_H 	H 	0.3561	0.5285	0.6066	-0.002
Mof_H 	H 	0.3534	0.6173	0.623	-0.117
Mof_H 	H 	0.3663	0.569	0.6378	-0.048
Mof_H 	H 	0.3304	0.6251	0.5768	-0.004
Mof_H 	H 	0.333	0.5363	0.5604	0.041
Mof_C 	C 	0.519	0.568	0.6671	0.147
Mof_H 	H 	0.4704	0.5621	0.6922	-0.132
Mof_H 	H 	0.5491	0.522	0.6734	0.01
Mof_H 	H 	0.5465	0.6108	0.6897	0.019
Mof_H 	H 	0.5736	0.5678	0.678	-0
Mof_H 	H 	0.4949	0.6079	0.6968	0.001
Mof_H 	H 	0.4975	0.5191	0.6805	0.008
Mof_C 	C 	0.648	0.595	0.544	0.073
Mof_H 	H 	0.6754	0.6044	0.4967	-0.014
Mof_H 	H 	0.6609	0.6344	0.5806	-0.003
Mof_H 	H 	0.6635	0.5456	0.5643	0.023
Mof_H 	H 	0.6578	0.5852	0.5977	0.037
Mof_H 	H 	0.6724	0.5552	0.5137	0.006
Mof_H 	H 	0.6697	0.644	0.5301	0.016
Mof_Fe	Fe	0.5	0.5	0.5	1.043
_end
