# CIF file generated by openbabel 2.4.1, see http://openbabel.sf.net
data_I
_chemical_name_common 'image0'
_cell_length_a 16.586
_cell_length_b 16.586
_cell_length_c 18.124
_cell_angle_alpha 90
_cell_angle_beta 90
_cell_angle_gamma 120
_space_group_name_H-M_alt 'P 1'
_space_group_name_Hall 'P 1'
loop_
    _symmetry_equiv_pos_as_xyz
    x,y,z
loop_
    _atom_site_label
    _atom_site_type_symbol
    _atom_site_fract_x
    _atom_site_fract_y
    _atom_site_fract_z
    _atom_site_occupancy
    Ni1     Ni   0.01190   0.66692   0.69581   1.000
    Ni2     Ni   0.01163   0.66657   0.31637   1.000
    O1      O    0.88430   0.55250   0.69500   1.000
    O2      O    0.77380   0.58930   0.70750   1.000
    O3      O    0.85420   0.74810   0.70410   1.000
    O4      O    0.00180   0.78280   0.69590   1.000
    O5      O    0.15880   0.74200   0.70040   1.000
    O6      O    0.08340   0.59210   0.70410   1.000
    C1      C    0.80320   0.53070   0.70380   1.000
    C2      C    0.72940   0.42440   0.70470   1.000
    C3      C    0.75700   0.35730   0.70720   1.000
    H1      H    0.82110   0.37580   0.71070   1.000
    C4      C    0.94410   0.80550   0.69810   1.000
    C5      C    0.97070   0.90960   0.70190   1.000
    C6      C    0.90740   0.93480   0.70290   1.000
    H2      H    0.84290   0.89020   0.70410   1.000
    C7      C    0.15970   0.66700   0.70160   1.000
    C8      C    0.24630   0.66590   0.70430   1.000
    C9      C    0.33260   0.74860   0.70440   1.000
    H3      H    0.33210   0.80570   0.70470   1.000
    O7      O    0.88590   0.55160   0.31760   1.000
    O8      O    0.77360   0.58620   0.30720   1.000
    O9      O    0.85280   0.74820   0.30870   1.000
    O10     O    0.00030   0.78110   0.31660   1.000
    O11     O    0.15920   0.74270   0.31070   1.000
    O12     O    0.08240   0.59100   0.31030   1.000
    C10     C    0.80160   0.52910   0.31530   1.000
    C11     C    0.73040   0.42720   0.30650   1.000
    C12     C    0.64120   0.40070   0.30930   1.000
    H4      H    0.62210   0.44580   0.31310   1.000
    C13     C    0.94040   0.80340   0.31300   1.000
    C14     C    0.97040   0.90660   0.31200   1.000
    C15     C    0.06500   0.97310   0.31380   1.000
    H5      H    0.10980   0.95350   0.31640   1.000
    C16     C    0.15880   0.66480   0.31130   1.000
    C17     C    0.24960   0.66780   0.30680   1.000
    C18     C    0.25090   0.58460   0.30630   1.000
    H6      H    0.19330   0.52760   0.30550   1.000
    N1      N    0.01320   0.66740   0.58150   1.000
    N2      N    0.01330   0.66740   0.42850   1.000
    C19     C    0.93230   0.66660   0.54820   1.000
    H7      H    0.93150   0.72330   0.56410   1.000
    H8      H    0.87500   0.61220   0.56730   1.000
    C20     C    0.92990   0.66260   0.46280   1.000
    H9      H    0.87420   0.60410   0.44710   1.000
    H10     H    0.92310   0.71500   0.44390   1.000
    C21     C    0.01240   0.58600   0.54680   1.000
    H11     H    0.95630   0.52880   0.56400   1.000
    H12     H    0.06740   0.58320   0.56460   1.000
    C22     C    0.01300   0.58510   0.46330   1.000
    H13     H    0.06880   0.58310   0.44630   1.000
    H14     H    0.95750   0.52750   0.44580   1.000
    C23     C    0.09790   0.74680   0.54810   1.000
    H15     H    0.15310   0.74450   0.56580   1.000
    H16     H    0.10330   0.80550   0.56650   1.000
    C24     C    0.10040   0.74990   0.46340   1.000
    H17     H    0.15660   0.74900   0.44610   1.000
    H18     H    0.10510   0.80890   0.44660   1.000
    N3      N    0.00650   0.66950   0.81420   1.000
    C25     C    0.95400   0.58480   0.85010   1.000
    H19     H    0.91910   0.52940   0.82220   1.000
    C26     C    0.95260   0.58110   0.92670   1.000
    H20     H    0.91670   0.52320   0.95120   1.000
    C27     C    0.00360   0.66220   0.96750   1.000
    C28     C    0.05610   0.74690   0.93160   1.000
    H21     H    0.09100   0.80230   0.95950   1.000
    C29     C    0.05750   0.75060   0.85500   1.000
    H22     H    0.09340   0.80850   0.83050   1.000
    N4      N    0.00550   0.66650   0.19620   1.000
    C30     C    0.06240   0.74880   0.15850   1.000
    H23     H    0.10190   0.80410   0.18510   1.000
    C31     C    0.06130   0.75020   0.08180   1.000
    H24     H    0.10020   0.80650   0.05600   1.000
    C32     C    0.00340   0.66930   0.04280   1.000
    C33     C    0.94660   0.58710   0.08050   1.000
    H25     H    0.90700   0.53180   0.05390   1.000
    C34     C    0.94760   0.58560   0.15720   1.000
    H26     H    0.90870   0.52940   0.18300   1.000
    C35     C    0.98900   0.57960   0.84190   1.000
    H27     H    0.03480   0.56490   0.81920   1.000
    H28     H    0.92630   0.53080   0.82660   1.000
    C36     C    0.99700   0.57740   0.92730   1.000
    H29     H    0.94080   0.52560   0.95020   1.000
    H30     H    0.05320   0.57560   0.94340   1.000
    C37     C    0.09900   0.74000   0.83520   1.000
    H31     H    0.11570   0.80020   0.81130   1.000
    H32     H    0.14510   0.72190   0.82090   1.000
    C38     C    0.09500   0.74800   0.92040   1.000
    H33     H    0.14650   0.74350   0.94440   1.000
    H34     H    0.09930   0.80750   0.93490   1.000
    C39     C    0.93800   0.69500   0.83880   1.000
    H35     H    0.87690   0.65400   0.81520   1.000
    H36     H    0.95840   0.76020   0.82430   1.000
    C40     C    0.92900   0.68500   0.92340   1.000
    H37     H    0.93730   0.74290   0.94710   1.000
    H38     H    0.86770   0.63210   0.93840   1.000
    N5      N    0.00480   0.66870   0.94020   1.000
    C41     C    0.93100   0.68000   0.16950   1.000
    H39     H    0.93540   0.73670   0.19220   1.000
    H40     H    0.86980   0.62620   0.18260   1.000
    C42     C    0.94100   0.69100   0.08580   1.000
    H41     H    0.88180   0.64790   0.06020   1.000
    H42     H    0.96100   0.75600   0.07020   1.000
    C43     C    0.10000   0.73600   0.17900   1.000
    H43     H    0.14370   0.71630   0.19660   1.000
    H44     H    0.11560   0.79610   0.20240   1.000
    C44     C    0.10310   0.74500   0.09290   1.000
    H45     H    0.11160   0.80560   0.07670   1.000
    H46     H    0.15310   0.73580   0.07150   1.000
    C45     C    0.98800   0.57630   0.17220   1.000
    H47     H    0.92610   0.52750   0.18970   1.000
    H48     H    0.03560   0.56350   0.19320   1.000
    C46     C    0.99100   0.57440   0.08780   1.000
    H49     H    0.04210   0.56440   0.06970   1.000
    H50     H    0.93130   0.52710   0.06620   1.000
    N6      N    0.01040   0.66780   0.07410   1.000
    Ni3     Ni   0.33308   0.34498   0.69581   1.000
    Ni4     Ni   0.33343   0.34506   0.31637   1.000
    O13     O    0.44750   0.33180   0.69500   1.000
    O14     O    0.41070   0.18450   0.70750   1.000
    O15     O    0.25190   0.10610   0.70410   1.000
    O16     O    0.21720   0.21900   0.69590   1.000
    O17     O    0.25800   0.41680   0.70040   1.000
    O18     O    0.40790   0.49130   0.70410   1.000
    C47     C    0.46930   0.27250   0.70380   1.000
    C48     C    0.57560   0.30500   0.70470   1.000
    C49     C    0.64270   0.39970   0.70720   1.000
    H51     H    0.62420   0.44530   0.71070   1.000
    C50     C    0.19450   0.13860   0.69810   1.000
    C51     C    0.09040   0.06110   0.70190   1.000
    C52     C    0.06520   0.97260   0.70290   1.000
    H52     H    0.10980   0.95270   0.70410   1.000
    C53     C    0.33300   0.49270   0.70160   1.000
    C54     C    0.33410   0.58040   0.70430   1.000
    C55     C    0.25140   0.58400   0.70440   1.000
    H53     H    0.19430   0.52640   0.70470   1.000
    O19     O    0.44840   0.33430   0.31760   1.000
    O20     O    0.41380   0.18740   0.30720   1.000
    O21     O    0.25180   0.10460   0.30870   1.000
    O22     O    0.21890   0.21920   0.31660   1.000
    O23     O    0.25730   0.41650   0.31070   1.000
    O24     O    0.40900   0.49140   0.31030   1.000
    C56     C    0.47090   0.27250   0.31530   1.000
    C57     C    0.57280   0.30320   0.30650   1.000
    C58     C    0.59930   0.24050   0.30930   1.000
    H54     H    0.55420   0.17630   0.31310   1.000
    C59     C    0.19660   0.13700   0.31300   1.000
    C60     C    0.09340   0.06380   0.31200   1.000
    C61     C    0.02690   0.09190   0.31380   1.000
    H55     H    0.04650   0.15630   0.31640   1.000
    C62     C    0.33520   0.49400   0.31130   1.000
    C63     C    0.33220   0.58180   0.30680   1.000
    C64     C    0.41540   0.66630   0.30630   1.000
    H56     H    0.47240   0.66570   0.30550   1.000
    N7      N    0.33260   0.34580   0.58150   1.000
    N8      N    0.33260   0.34590   0.42850   1.000
    C65     C    0.33340   0.26570   0.54820   1.000
    H57     H    0.27670   0.20820   0.56410   1.000
    H58     H    0.38780   0.26280   0.56730   1.000
    C66     C    0.33740   0.26730   0.46280   1.000
    H59     H    0.39590   0.27010   0.44710   1.000
    H60     H    0.28500   0.20810   0.44390   1.000
    C67     C    0.41400   0.42640   0.54680   1.000
    H61     H    0.47120   0.42750   0.56400   1.000
    H62     H    0.41680   0.48420   0.56460   1.000
    C68     C    0.41490   0.42790   0.46330   1.000
    H63     H    0.41690   0.48570   0.44630   1.000
    H64     H    0.47250   0.43000   0.44580   1.000
    C69     C    0.25320   0.35110   0.54810   1.000
    H65     H    0.25550   0.40860   0.56580   1.000
    H66     H    0.19450   0.29780   0.56650   1.000
    C70     C    0.25010   0.35050   0.46340   1.000
    H67     H    0.25100   0.40760   0.44610   1.000
    H68     H    0.19110   0.29620   0.44660   1.000
    N9      N    0.33050   0.33700   0.81420   1.000
    C71     C    0.41520   0.36920   0.85010   1.000
    H69     H    0.47060   0.38970   0.82220   1.000
    C72     C    0.41890   0.37150   0.92670   1.000
    H70     H    0.47680   0.39350   0.95120   1.000
    C73     C    0.33780   0.34140   0.96750   1.000
    C74     C    0.25310   0.30920   0.93160   1.000
    H71     H    0.19770   0.28870   0.95950   1.000
    C75     C    0.24940   0.30690   0.85500   1.000
    H72     H    0.19150   0.28490   0.83050   1.000
    N10     N    0.33350   0.33900   0.19620   1.000
    C76     C    0.25120   0.31360   0.15850   1.000
    H73     H    0.19590   0.29780   0.18510   1.000
    C77     C    0.24980   0.31110   0.08180   1.000
    H74     H    0.19350   0.29370   0.05600   1.000
    C78     C    0.33070   0.33410   0.04280   1.000
    C79     C    0.41290   0.35950   0.08050   1.000
    H75     H    0.46820   0.37520   0.05390   1.000
    C80     C    0.41440   0.36200   0.15720   1.000
    H76     H    0.47060   0.37930   0.18300   1.000
    C81     C    0.42040   0.40940   0.84190   1.000
    H77     H    0.43510   0.46990   0.81920   1.000
    H78     H    0.46920   0.39550   0.82660   1.000
    C82     C    0.42260   0.41960   0.92730   1.000
    H79     H    0.47440   0.41520   0.95020   1.000
    H80     H    0.42440   0.47760   0.94340   1.000
    C83     C    0.26000   0.35900   0.83520   1.000
    H81     H    0.19980   0.31550   0.81130   1.000
    H82     H    0.27810   0.42320   0.82090   1.000
    C84     C    0.25200   0.34700   0.92040   1.000
    H83     H    0.25650   0.40300   0.94440   1.000
    H84     H    0.19250   0.29180   0.93490   1.000
    C85     C    0.30500   0.24300   0.83880   1.000
    H85     H    0.34600   0.22290   0.81520   1.000
    H86     H    0.23980   0.19820   0.82430   1.000
    C86     C    0.31500   0.24400   0.92340   1.000
    H87     H    0.25710   0.19440   0.94710   1.000
    H88     H    0.36790   0.23560   0.93840   1.000
    N11     N    0.33130   0.33610   0.94020   1.000
    C87     C    0.32000   0.25100   0.16950   1.000
    H89     H    0.26330   0.19870   0.19220   1.000
    H90     H    0.37380   0.24360   0.18260   1.000
    C88     C    0.30900   0.25000   0.08580   1.000
    H91     H    0.35210   0.23390   0.06020   1.000
    H92     H    0.24400   0.20500   0.07020   1.000
    C89     C    0.26400   0.36400   0.17900   1.000
    H93     H    0.28370   0.42740   0.19660   1.000
    H94     H    0.20390   0.31950   0.20240   1.000
    C90     C    0.25500   0.35810   0.09290   1.000
    H95     H    0.19440   0.30600   0.07670   1.000
    H96     H    0.26420   0.41730   0.07150   1.000
    C91     C    0.42370   0.41170   0.17220   1.000
    H97     H    0.47250   0.39860   0.18970   1.000
    H98     H    0.43650   0.47210   0.19320   1.000
    C92     C    0.42560   0.41660   0.08780   1.000
    H99     H    0.43560   0.47770   0.06970   1.000
    H100    H    0.47290   0.40420   0.06620   1.000
    N12     N    0.33220   0.34260   0.07410   1.000
    Ni5     Ni   0.65502   0.98810   0.69581   1.000
    Ni6     Ni   0.65494   0.98837   0.31637   1.000
    O25     O    0.66820   0.11570   0.69500   1.000
    O26     O    0.81550   0.22620   0.70750   1.000
    O27     O    0.89390   0.14580   0.70410   1.000
    O28     O    0.78100   0.99820   0.69590   1.000
    O29     O    0.58320   0.84120   0.70040   1.000
    O30     O    0.50870   0.91660   0.70410   1.000
    C93     C    0.72750   0.19680   0.70380   1.000
    C94     C    0.69500   0.27060   0.70470   1.000
    C95     C    0.60030   0.24300   0.70720   1.000
    H101    H    0.55470   0.17890   0.71070   1.000
    C96     C    0.86140   0.05590   0.69810   1.000
    C97     C    0.93890   0.02930   0.70190   1.000
    C98     C    0.02740   0.09260   0.70290   1.000
    H102    H    0.04730   0.15710   0.70410   1.000
    C99     C    0.50730   0.84030   0.70160   1.000
    C100    C    0.41960   0.75370   0.70430   1.000
    C101    C    0.41600   0.66740   0.70440   1.000
    H103    H    0.47360   0.66790   0.70470   1.000
    O31     O    0.66570   0.11410   0.31760   1.000
    O32     O    0.81260   0.22640   0.30720   1.000
    O33     O    0.89540   0.14720   0.30870   1.000
    O34     O    0.78080   0.99970   0.31660   1.000
    O35     O    0.58350   0.84080   0.31070   1.000
    O36     O    0.50860   0.91760   0.31030   1.000
    C102    C    0.72750   0.19840   0.31530   1.000
    C103    C    0.69680   0.26960   0.30650   1.000
    C104    C    0.75950   0.35880   0.30930   1.000
    H104    H    0.82370   0.37790   0.31310   1.000
    C105    C    0.86300   0.05960   0.31300   1.000
    C106    C    0.93620   0.02960   0.31200   1.000
    C107    C    0.90810   0.93500   0.31380   1.000
    H105    H    0.84370   0.89020   0.31640   1.000
    C108    C    0.50600   0.84120   0.31130   1.000
    C109    C    0.41820   0.75040   0.30680   1.000
    C110    C    0.33370   0.74910   0.30630   1.000
    H106    H    0.33430   0.80670   0.30550   1.000
    N13     N    0.65420   0.98680   0.58150   1.000
    N14     N    0.65410   0.98670   0.42850   1.000
    C111    C    0.73430   0.06770   0.54820   1.000
    H107    H    0.79180   0.06850   0.56410   1.000
    H108    H    0.73720   0.12500   0.56730   1.000
    C112    C    0.73270   0.07010   0.46280   1.000
    H109    H    0.72990   0.12580   0.44710   1.000
    H110    H    0.79190   0.07690   0.44390   1.000
    C113    C    0.57360   0.98760   0.54680   1.000
    H111    H    0.57250   0.04370   0.56400   1.000
    H112    H    0.51580   0.93260   0.56460   1.000
    C114    C    0.57210   0.98700   0.46330   1.000
    H113    H    0.51430   0.93120   0.44630   1.000
    H114    H    0.57000   0.04250   0.44580   1.000
    C115    C    0.64890   0.90210   0.54810   1.000
    H115    H    0.59140   0.84690   0.56580   1.000
    H116    H    0.70220   0.89670   0.56650   1.000
    C116    C    0.64950   0.89960   0.46340   1.000
    H117    H    0.59240   0.84340   0.44610   1.000
    H118    H    0.70380   0.89490   0.44660   1.000
    N15     N    0.66300   0.99350   0.81420   1.000
    C117    C    0.63080   0.04600   0.85010   1.000
    H119    H    0.61030   0.08090   0.82220   1.000
    C118    C    0.62850   0.04740   0.92670   1.000
    H120    H    0.60650   0.08330   0.95120   1.000
    C119    C    0.65860   0.99640   0.96750   1.000
    C120    C    0.69080   0.94390   0.93160   1.000
    H121    H    0.71130   0.90900   0.95950   1.000
    C121    C    0.69310   0.94250   0.85500   1.000
    H122    H    0.71510   0.90660   0.83050   1.000
    N16     N    0.66100   0.99450   0.19620   1.000
    C122    C    0.68640   0.93760   0.15850   1.000
    H123    H    0.70220   0.89810   0.18510   1.000
    C123    C    0.68890   0.93870   0.08180   1.000
    H124    H    0.70630   0.89980   0.05600   1.000
    C124    C    0.66590   0.99660   0.04280   1.000
    C125    C    0.64050   0.05340   0.08050   1.000
    H125    H    0.62480   0.09300   0.05390   1.000
    C126    C    0.63800   0.05240   0.15720   1.000
    H126    H    0.62070   0.09130   0.18300   1.000
    C127    C    0.59060   0.01100   0.84190   1.000
    H127    H    0.53010   0.96520   0.81920   1.000
    H128    H    0.60450   0.07370   0.82660   1.000
    C128    C    0.58040   0.00300   0.92730   1.000
    H129    H    0.58480   0.05920   0.95020   1.000
    H130    H    0.52240   0.94680   0.94340   1.000
    C129    C    0.64100   0.90100   0.83520   1.000
    H131    H    0.68450   0.88430   0.81130   1.000
    H132    H    0.57680   0.85490   0.82090   1.000
    C130    C    0.65300   0.90500   0.92040   1.000
    H133    H    0.59700   0.85350   0.94440   1.000
    H134    H    0.70820   0.90070   0.93490   1.000
    C131    C    0.75700   0.06200   0.83880   1.000
    H135    H    0.77710   0.12310   0.81520   1.000
    H136    H    0.80180   0.04160   0.82430   1.000
    C132    C    0.75600   0.07100   0.92340   1.000
    H137    H    0.80560   0.06270   0.94710   1.000
    H138    H    0.76440   0.13230   0.93840   1.000
    N17     N    0.66390   0.99520   0.94020   1.000
    C133    C    0.74900   0.06900   0.16950   1.000
    H139    H    0.80130   0.06460   0.19220   1.000
    H140    H    0.75640   0.13020   0.18260   1.000
    C134    C    0.75000   0.05900   0.08580   1.000
    H141    H    0.76610   0.11820   0.06020   1.000
    H142    H    0.79500   0.03900   0.07020   1.000
    C135    C    0.63600   0.90000   0.17900   1.000
    H143    H    0.57260   0.85630   0.19660   1.000
    H144    H    0.68050   0.88440   0.20240   1.000
    C136    C    0.64190   0.89690   0.09290   1.000
    H145    H    0.69400   0.88840   0.07670   1.000
    H146    H    0.58270   0.84690   0.07150   1.000
    C137    C    0.58830   0.01200   0.17220   1.000
    H147    H    0.60140   0.07390   0.18970   1.000
    H148    H    0.52790   0.96440   0.19320   1.000
    C138    C    0.58340   0.00900   0.08780   1.000
    H149    H    0.52230   0.95790   0.06970   1.000
    H150    H    0.59580   0.06870   0.06620   1.000
    N18     N    0.65740   0.98960   0.07410   1.000
