# CIF file generated by openbabel 2.4.1, see http://openbabel.sf.net
data_I
_chemical_name_common 'image0'
_cell_length_a 31.283
_cell_length_b 14.5442
_cell_length_c 8.6817
_cell_angle_alpha 90
_cell_angle_beta 96.033
_cell_angle_gamma 90
_space_group_name_H-M_alt 'P 1'
_space_group_name_Hall 'P 1'
loop_
    _symmetry_equiv_pos_as_xyz
    x,y,z
loop_
    _atom_site_label
    _atom_site_type_symbol
    _atom_site_fract_x
    _atom_site_fract_y
    _atom_site_fract_z
    _atom_site_occupancy
    Ce1     Ce   0.67296   0.56042   0.77390   1.000
    O1      O    0.69944   0.53710   0.51620   1.000
    O2      O    0.74689   0.53570   0.34600   1.000
    O3      O    0.80668   0.84350   0.99400   1.000
    O4      O    0.84134   0.89850   0.79980   1.000
    N1      N    0.74311   0.65430   0.70190   1.000
    C1      C    0.73467   0.56280   0.47020   1.000
    C2      C    0.76051   0.63130   0.57120   1.000
    C3      C    0.79742   0.67120   0.52950   1.000
    H1      H    0.80950   0.65160   0.43900   1.000
    C4      C    0.81670   0.74060   0.62160   1.000
    H2      H    0.84160   0.77090   0.59270   1.000
    C5      C    0.79953   0.76500   0.75570   1.000
    C6      C    0.76250   0.71830   0.79200   1.000
    H3      H    0.75100   0.73340   0.88560   1.000
    C7      C    0.81748   0.84060   0.85780   1.000
    O5      O    0.61158   0.57140   0.57110   1.000
    O6      O    0.60683   0.45770   0.39820   1.000
    C8      C    0.59130   0.51250   0.48710   1.000
    C9      C    0.54370   0.50590   0.49340   1.000
    C10     C    0.52170   0.57500   0.55710   1.000
    H4      H    0.53690   0.62750   0.59860   1.000
    N2      N    0.52130   0.43030   0.43800   1.000
    C11     C    0.47870   0.56970   0.56200   1.000
    H5      H    0.53600   0.38080   0.39550   1.000
    H6      H    0.46420   0.37640   0.40450   1.000
    H7      H    0.46510   0.61550   0.60140   1.000
    Ce2     Ce   0.17296   0.06042   0.77390   1.000
    O7      O    0.19944   0.03710   0.51620   1.000
    O8      O    0.24689   0.03570   0.34600   1.000
    O9      O    0.30668   0.34350   0.99400   1.000
    O10     O    0.34134   0.39850   0.79980   1.000
    N3      N    0.24311   0.15430   0.70190   1.000
    C12     C    0.23467   0.06280   0.47020   1.000
    C13     C    0.26051   0.13130   0.57120   1.000
    C14     C    0.29742   0.17120   0.52950   1.000
    H8      H    0.30950   0.15160   0.43900   1.000
    C15     C    0.31670   0.24060   0.62160   1.000
    H9      H    0.34160   0.27090   0.59270   1.000
    C16     C    0.29953   0.26500   0.75570   1.000
    C17     C    0.26250   0.21830   0.79200   1.000
    H10     H    0.25100   0.23340   0.88560   1.000
    C18     C    0.31748   0.34060   0.85780   1.000
    O11     O    0.11158   0.07140   0.57110   1.000
    O12     O    0.10683   0.95770   0.39820   1.000
    C19     C    0.09130   0.01250   0.48710   1.000
    C20     C    0.04370   0.00590   0.49340   1.000
    C21     C    0.02170   0.07500   0.55710   1.000
    H11     H    0.03690   0.12750   0.59860   1.000
    N4      N    0.02130   0.93030   0.43800   1.000
    C22     C    0.97870   0.06970   0.56200   1.000
    H12     H    0.03600   0.88080   0.39550   1.000
    H13     H    0.96420   0.87640   0.40450   1.000
    H14     H    0.96510   0.11550   0.60140   1.000
    Ce3     Ce   0.32704   0.56042   0.72610   1.000
    O13     O    0.30056   0.53710   0.98380   1.000
    O14     O    0.25311   0.53570   0.15400   1.000
    O15     O    0.19332   0.84350   0.50600   1.000
    O16     O    0.15866   0.89850   0.70020   1.000
    N5      N    0.25689   0.65430   0.79810   1.000
    C23     C    0.26533   0.56280   0.02980   1.000
    C24     C    0.23949   0.63130   0.92880   1.000
    C25     C    0.20258   0.67120   0.97050   1.000
    H15     H    0.19050   0.65160   0.06100   1.000
    C26     C    0.18330   0.74060   0.87840   1.000
    H16     H    0.15840   0.77090   0.90730   1.000
    C27     C    0.20047   0.76500   0.74430   1.000
    C28     C    0.23750   0.71830   0.70800   1.000
    H17     H    0.24900   0.73340   0.61440   1.000
    C29     C    0.18252   0.84060   0.64220   1.000
    O17     O    0.38842   0.57140   0.92890   1.000
    O18     O    0.39317   0.45770   0.10180   1.000
    C30     C    0.40870   0.51250   0.01290   1.000
    C31     C    0.45630   0.50590   0.00660   1.000
    C32     C    0.47830   0.57500   0.94290   1.000
    H18     H    0.46310   0.62750   0.90140   1.000
    N6      N    0.47870   0.43030   0.06200   1.000
    C33     C    0.52130   0.56970   0.93800   1.000
    H19     H    0.46400   0.38080   0.10450   1.000
    H20     H    0.53580   0.37640   0.09550   1.000
    H21     H    0.53490   0.61550   0.89860   1.000
    Ce4     Ce   0.82704   0.06042   0.72610   1.000
    O19     O    0.80056   0.03710   0.98380   1.000
    O20     O    0.75311   0.03570   0.15400   1.000
    O21     O    0.69332   0.34350   0.50600   1.000
    O22     O    0.65866   0.39850   0.70020   1.000
    N7      N    0.75689   0.15430   0.79810   1.000
    C34     C    0.76533   0.06280   0.02980   1.000
    C35     C    0.73949   0.13130   0.92880   1.000
    C36     C    0.70258   0.17120   0.97050   1.000
    H22     H    0.69050   0.15160   0.06100   1.000
    C37     C    0.68330   0.24060   0.87840   1.000
    H23     H    0.65840   0.27090   0.90730   1.000
    C38     C    0.70047   0.26500   0.74430   1.000
    C39     C    0.73750   0.21830   0.70800   1.000
    H24     H    0.74900   0.23340   0.61440   1.000
    C40     C    0.68252   0.34060   0.64220   1.000
    O23     O    0.88842   0.07140   0.92890   1.000
    O24     O    0.89317   0.95770   0.10180   1.000
    C41     C    0.90870   0.01250   0.01290   1.000
    C42     C    0.95630   0.00590   0.00660   1.000
    C43     C    0.97830   0.07500   0.94290   1.000
    H25     H    0.96310   0.12750   0.90140   1.000
    N8      N    0.97870   0.93030   0.06200   1.000
    C44     C    0.02130   0.06970   0.93800   1.000
    H26     H    0.96400   0.88080   0.10450   1.000
    H27     H    0.03580   0.87640   0.09550   1.000
    H28     H    0.03490   0.11550   0.89860   1.000
    Ce5     Ce   0.32704   0.43958   0.22610   1.000
    O25     O    0.30056   0.46290   0.48380   1.000
    O26     O    0.25311   0.46430   0.65400   1.000
    O27     O    0.19332   0.15650   0.00600   1.000
    O28     O    0.15866   0.10150   0.20020   1.000
    N9      N    0.25689   0.34570   0.29810   1.000
    C45     C    0.26533   0.43720   0.52980   1.000
    C46     C    0.23949   0.36870   0.42880   1.000
    C47     C    0.20258   0.32880   0.47050   1.000
    H29     H    0.19050   0.34840   0.56100   1.000
    C48     C    0.18330   0.25940   0.37840   1.000
    H30     H    0.15840   0.22910   0.40730   1.000
    C49     C    0.20047   0.23500   0.24430   1.000
    C50     C    0.23750   0.28170   0.20800   1.000
    H31     H    0.24900   0.26660   0.11440   1.000
    C51     C    0.18252   0.15940   0.14220   1.000
    O29     O    0.38842   0.42860   0.42890   1.000
    O30     O    0.39317   0.54230   0.60180   1.000
    C52     C    0.40870   0.48750   0.51290   1.000
    C53     C    0.45630   0.49410   0.50660   1.000
    C54     C    0.47830   0.42500   0.44290   1.000
    H32     H    0.46310   0.37250   0.40140   1.000
    H33     H    0.46400   0.61920   0.60450   1.000
    H34     H    0.53580   0.62360   0.59550   1.000
    H35     H    0.53490   0.38450   0.39860   1.000
    Ce6     Ce   0.82704   0.93958   0.22610   1.000
    O31     O    0.80056   0.96290   0.48380   1.000
    O32     O    0.75311   0.96430   0.65400   1.000
    O33     O    0.69332   0.65650   0.00600   1.000
    O34     O    0.65866   0.60150   0.20020   1.000
    N10     N    0.75689   0.84570   0.29810   1.000
    C55     C    0.76533   0.93720   0.52980   1.000
    C56     C    0.73949   0.86870   0.42880   1.000
    C57     C    0.70258   0.82880   0.47050   1.000
    H36     H    0.69050   0.84840   0.56100   1.000
    C58     C    0.68330   0.75940   0.37840   1.000
    H37     H    0.65840   0.72910   0.40730   1.000
    C59     C    0.70047   0.73500   0.24430   1.000
    C60     C    0.73750   0.78170   0.20800   1.000
    H38     H    0.74900   0.76660   0.11440   1.000
    C61     C    0.68252   0.65940   0.14220   1.000
    O35     O    0.88842   0.92860   0.42890   1.000
    O36     O    0.89317   0.04230   0.60180   1.000
    C62     C    0.90870   0.98750   0.51290   1.000
    C63     C    0.95630   0.99410   0.50660   1.000
    C64     C    0.97830   0.92500   0.44290   1.000
    H39     H    0.96310   0.87250   0.40140   1.000
    H40     H    0.96400   0.11920   0.60450   1.000
    H41     H    0.03580   0.12360   0.59550   1.000
    H42     H    0.03490   0.88450   0.39860   1.000
    Ce7     Ce   0.67296   0.43958   0.27390   1.000
    O37     O    0.69944   0.46290   0.01620   1.000
    O38     O    0.74689   0.46430   0.84600   1.000
    O39     O    0.80668   0.15650   0.49400   1.000
    O40     O    0.84134   0.10150   0.29980   1.000
    N11     N    0.74311   0.34570   0.20190   1.000
    C65     C    0.73467   0.43720   0.97020   1.000
    C66     C    0.76051   0.36870   0.07120   1.000
    C67     C    0.79742   0.32880   0.02950   1.000
    H43     H    0.80950   0.34840   0.93900   1.000
    C68     C    0.81670   0.25940   0.12160   1.000
    H44     H    0.84160   0.22910   0.09270   1.000
    C69     C    0.79953   0.23500   0.25570   1.000
    C70     C    0.76250   0.28170   0.29200   1.000
    H45     H    0.75100   0.26660   0.38560   1.000
    C71     C    0.81748   0.15940   0.35780   1.000
    O41     O    0.61158   0.42860   0.07110   1.000
    O42     O    0.60683   0.54230   0.89820   1.000
    C72     C    0.59130   0.48750   0.98710   1.000
    C73     C    0.54370   0.49410   0.99340   1.000
    C74     C    0.52170   0.42500   0.05710   1.000
    H46     H    0.53690   0.37250   0.09860   1.000
    H47     H    0.53600   0.61920   0.89550   1.000
    H48     H    0.46420   0.62360   0.90450   1.000
    H49     H    0.46510   0.38450   0.10140   1.000
    Ce8     Ce   0.17296   0.93958   0.27390   1.000
    O43     O    0.19944   0.96290   0.01620   1.000
    O44     O    0.24689   0.96430   0.84600   1.000
    O45     O    0.30668   0.65650   0.49400   1.000
    O46     O    0.34134   0.60150   0.29980   1.000
    N12     N    0.24311   0.84570   0.20190   1.000
    C75     C    0.23467   0.93720   0.97020   1.000
    C76     C    0.26051   0.86870   0.07120   1.000
    C77     C    0.29742   0.82880   0.02950   1.000
    H50     H    0.30950   0.84840   0.93900   1.000
    C78     C    0.31670   0.75940   0.12160   1.000
    H51     H    0.34160   0.72910   0.09270   1.000
    C79     C    0.29953   0.73500   0.25570   1.000
    C80     C    0.26250   0.78170   0.29200   1.000
    H52     H    0.25100   0.76660   0.38560   1.000
    C81     C    0.31748   0.65940   0.35780   1.000
    O47     O    0.11158   0.92860   0.07110   1.000
    O48     O    0.10683   0.04230   0.89820   1.000
    C82     C    0.09130   0.98750   0.98710   1.000
    C83     C    0.04370   0.99410   0.99340   1.000
    C84     C    0.02170   0.92500   0.05710   1.000
    H53     H    0.03690   0.87250   0.09860   1.000
    H54     H    0.03600   0.11920   0.89550   1.000
    H55     H    0.96420   0.12360   0.90450   1.000
    H56     H    0.96510   0.88450   0.10140   1.000
