# CIF file generated by openbabel 2.4.1, see http://openbabel.sf.net
data_I
_chemical_name_common 'PUWCEP_charged'
_cell_length_a 13.4677
_cell_length_b 13.4677
_cell_length_c 13.4677
_cell_angle_alpha 90
_cell_angle_beta 90
_cell_angle_gamma 90
_space_group_name_H-M_alt 'P 1'
_space_group_name_Hall 'P 1'
loop_
    _symmetry_equiv_pos_as_xyz
    x,y,z
loop_
    _atom_site_label
    _atom_site_type_symbol
    _atom_site_fract_x
    _atom_site_fract_y
    _atom_site_fract_z
    _atom_site_occupancy
    Cd1     Cd   0.00000   0.50000   0.00000   1.000
    Cd2     Cd   0.00000   0.00000   0.50000   1.000
    Cd3     Cd   0.50000   0.00000   0.00000   1.000
    Cd4     Cd   0.50000   0.50000   0.50000   1.000
    H1      H    0.70900   0.42230   0.79060   1.000
    H2      H    0.29100   0.57770   0.79060   1.000
    H3      H    0.29100   0.42230   0.20940   1.000
    H4      H    0.70900   0.57770   0.20940   1.000
    H5      H    0.79060   0.70900   0.42230   1.000
    H6      H    0.79060   0.29100   0.57770   1.000
    H7      H    0.20940   0.29100   0.42230   1.000
    H8      H    0.20940   0.70900   0.57770   1.000
    H9      H    0.42230   0.79060   0.70900   1.000
    H10     H    0.57770   0.79060   0.29100   1.000
    H11     H    0.42230   0.20940   0.29100   1.000
    H12     H    0.57770   0.20940   0.70900   1.000
    H13     H    0.42230   0.70900   0.79060   1.000
    H14     H    0.57770   0.29100   0.79060   1.000
    H15     H    0.42230   0.29100   0.20940   1.000
    H16     H    0.57770   0.70900   0.20940   1.000
    H17     H    0.70900   0.79060   0.42230   1.000
    H18     H    0.29100   0.79060   0.57770   1.000
    H19     H    0.29100   0.20940   0.42230   1.000
    H20     H    0.70900   0.20940   0.57770   1.000
    H21     H    0.79060   0.42230   0.70900   1.000
    H22     H    0.79060   0.57770   0.29100   1.000
    H23     H    0.20940   0.42230   0.29100   1.000
    H24     H    0.20940   0.57770   0.70900   1.000
    H25     H    0.70810   0.29190   0.92500   1.000
    H26     H    0.79210   0.20790   0.92490   1.000
    H27     H    0.29190   0.70810   0.92500   1.000
    H28     H    0.20790   0.79210   0.92490   1.000
    H29     H    0.29190   0.29190   0.07500   1.000
    H30     H    0.20790   0.20790   0.07510   1.000
    H31     H    0.70810   0.70810   0.07500   1.000
    H32     H    0.79210   0.79210   0.07510   1.000
    H33     H    0.92500   0.70810   0.29190   1.000
    H34     H    0.92490   0.79210   0.20790   1.000
    H35     H    0.92500   0.29190   0.70810   1.000
    H36     H    0.92490   0.20790   0.79210   1.000
    H37     H    0.07500   0.29190   0.29190   1.000
    H38     H    0.07510   0.20790   0.20790   1.000
    H39     H    0.07500   0.70810   0.70810   1.000
    H40     H    0.07510   0.79210   0.79210   1.000
    H41     H    0.29190   0.92500   0.70810   1.000
    H42     H    0.20790   0.92490   0.79210   1.000
    H43     H    0.70810   0.92500   0.29190   1.000
    H44     H    0.79210   0.92490   0.20790   1.000
    H45     H    0.29190   0.07500   0.29190   1.000
    H46     H    0.20790   0.07510   0.20790   1.000
    H47     H    0.70810   0.07500   0.70810   1.000
    H48     H    0.79210   0.07510   0.79210   1.000
    C1      C    0.88120   0.38470   0.88120   1.000
    C2      C    0.81770   0.31760   0.81770   1.000
    C3      C    0.74970   0.38110   0.74970   1.000
    C4      C    0.11880   0.61530   0.88120   1.000
    C5      C    0.18230   0.68240   0.81770   1.000
    C6      C    0.25030   0.61890   0.74970   1.000
    C7      C    0.11880   0.38470   0.11880   1.000
    C8      C    0.18230   0.31760   0.18230   1.000
    C9      C    0.25030   0.38110   0.25030   1.000
    C10     C    0.88120   0.61530   0.11880   1.000
    C11     C    0.81770   0.68240   0.18230   1.000
    C12     C    0.74970   0.61890   0.25030   1.000
    C13     C    0.88120   0.88120   0.38470   1.000
    C14     C    0.81770   0.81770   0.31760   1.000
    C15     C    0.74970   0.74970   0.38110   1.000
    C16     C    0.88120   0.11880   0.61530   1.000
    C17     C    0.81770   0.18230   0.68240   1.000
    C18     C    0.74970   0.25030   0.61890   1.000
    C19     C    0.11880   0.11880   0.38470   1.000
    C20     C    0.18230   0.18230   0.31760   1.000
    C21     C    0.25030   0.25030   0.38110   1.000
    C22     C    0.11880   0.88120   0.61530   1.000
    C23     C    0.18230   0.81770   0.68240   1.000
    C24     C    0.25030   0.74970   0.61890   1.000
    C25     C    0.38470   0.88120   0.88120   1.000
    C26     C    0.31760   0.81770   0.81770   1.000
    C27     C    0.38110   0.74970   0.74970   1.000
    C28     C    0.61530   0.88120   0.11880   1.000
    C29     C    0.68240   0.81770   0.18230   1.000
    C30     C    0.61890   0.74970   0.25030   1.000
    C31     C    0.38470   0.11880   0.11880   1.000
    C32     C    0.31760   0.18230   0.18230   1.000
    C33     C    0.38110   0.25030   0.25030   1.000
    C34     C    0.61530   0.11880   0.88120   1.000
    C35     C    0.68240   0.18230   0.81770   1.000
    C36     C    0.61890   0.25030   0.74970   1.000
    C37     C    0.61850   0.38150   0.61850   1.000
    C38     C    0.68280   0.31720   0.68280   1.000
    C39     C    0.38150   0.61850   0.61850   1.000
    C40     C    0.31720   0.68280   0.68280   1.000
    C41     C    0.38150   0.38150   0.38150   1.000
    C42     C    0.31720   0.31720   0.31720   1.000
    C43     C    0.61850   0.61850   0.38150   1.000
    C44     C    0.68280   0.68280   0.31720   1.000
    C45     C    0.75010   0.24990   0.88170   1.000
    C46     C    0.24990   0.75010   0.88170   1.000
    C47     C    0.24990   0.24990   0.11830   1.000
    C48     C    0.75010   0.75010   0.11830   1.000
    C49     C    0.88170   0.75010   0.24990   1.000
    C50     C    0.88170   0.24990   0.75010   1.000
    C51     C    0.11830   0.24990   0.24990   1.000
    C52     C    0.11830   0.75010   0.75010   1.000
    C53     C    0.24990   0.88170   0.75010   1.000
    C54     C    0.75010   0.88170   0.24990   1.000
    C55     C    0.24990   0.11830   0.24990   1.000
    C56     C    0.75010   0.11830   0.75010   1.000
    O1      O    0.84300   0.43980   0.94320   1.000
    O2      O    0.97130   0.38400   0.87300   1.000
    O3      O    0.15700   0.56020   0.94320   1.000
    O4      O    0.02870   0.61600   0.87300   1.000
    O5      O    0.15700   0.43980   0.05680   1.000
    O6      O    0.02870   0.38400   0.12700   1.000
    O7      O    0.84300   0.56020   0.05680   1.000
    O8      O    0.97130   0.61600   0.12700   1.000
    O9      O    0.94320   0.84300   0.43980   1.000
    O10     O    0.87300   0.97130   0.38400   1.000
    O11     O    0.94320   0.15700   0.56020   1.000
    O12     O    0.87300   0.02870   0.61600   1.000
    O13     O    0.05680   0.15700   0.43980   1.000
    O14     O    0.12700   0.02870   0.38400   1.000
    O15     O    0.05680   0.84300   0.56020   1.000
    O16     O    0.12700   0.97130   0.61600   1.000
    O17     O    0.43980   0.94320   0.84300   1.000
    O18     O    0.38400   0.87300   0.97130   1.000
    O19     O    0.56020   0.94320   0.15700   1.000
    O20     O    0.61600   0.87300   0.02870   1.000
    O21     O    0.43980   0.05680   0.15700   1.000
    O22     O    0.38400   0.12700   0.02870   1.000
    O23     O    0.56020   0.05680   0.84300   1.000
    O24     O    0.61600   0.12700   0.97130   1.000
    O25     O    0.43980   0.84300   0.94320   1.000
    O26     O    0.38400   0.97130   0.87300   1.000
    O27     O    0.56020   0.15700   0.94320   1.000
    O28     O    0.61600   0.02870   0.87300   1.000
    O29     O    0.43980   0.15700   0.05680   1.000
    O30     O    0.38400   0.02870   0.12700   1.000
    O31     O    0.56020   0.84300   0.05680   1.000
    O32     O    0.61600   0.97130   0.12700   1.000
    O33     O    0.84300   0.94320   0.43980   1.000
    O34     O    0.97130   0.87300   0.38400   1.000
    O35     O    0.15700   0.94320   0.56020   1.000
    O36     O    0.02870   0.87300   0.61600   1.000
    O37     O    0.15700   0.05680   0.43980   1.000
    O38     O    0.02870   0.12700   0.38400   1.000
    O39     O    0.84300   0.05680   0.56020   1.000
    O40     O    0.97130   0.12700   0.61600   1.000
    O41     O    0.94320   0.43980   0.84300   1.000
    O42     O    0.87300   0.38400   0.97130   1.000
    O43     O    0.94320   0.56020   0.15700   1.000
    O44     O    0.87300   0.61600   0.02870   1.000
    O45     O    0.05680   0.43980   0.15700   1.000
    O46     O    0.12700   0.38400   0.02870   1.000
    O47     O    0.05680   0.56020   0.84300   1.000
    O48     O    0.12700   0.61600   0.97130   1.000
    O49     O    0.55900   0.44100   0.65830   1.000
    O50     O    0.62600   0.37400   0.52770   1.000
    O51     O    0.44100   0.55900   0.65830   1.000
    O52     O    0.37400   0.62600   0.52770   1.000
    O53     O    0.44100   0.44100   0.34170   1.000
    O54     O    0.37400   0.37400   0.47230   1.000
    O55     O    0.55900   0.55900   0.34170   1.000
    O56     O    0.62600   0.62600   0.47230   1.000
    O57     O    0.65830   0.55900   0.44100   1.000
    O58     O    0.52770   0.62600   0.37400   1.000
    O59     O    0.65830   0.44100   0.55900   1.000
    O60     O    0.52770   0.37400   0.62600   1.000
    O61     O    0.34170   0.44100   0.44100   1.000
    O62     O    0.47230   0.37400   0.37400   1.000
    O63     O    0.34170   0.55900   0.55900   1.000
    O64     O    0.47230   0.62600   0.62600   1.000
    O65     O    0.44100   0.65830   0.55900   1.000
    O66     O    0.37400   0.52770   0.62600   1.000
    O67     O    0.55900   0.65830   0.44100   1.000
    O68     O    0.62600   0.52770   0.37400   1.000
    O69     O    0.44100   0.34170   0.44100   1.000
    O70     O    0.37400   0.47230   0.37400   1.000
    O71     O    0.55900   0.34170   0.55900   1.000
    O72     O    0.62600   0.47230   0.62600   1.000
