data_functionalizedCrystal
_audit_creation_method	'EQeq! by Chris Wilmer'
_symmetry_space_group_name_H-M	'P1'
_symmetry_Int_Tables_number	1
_symmetry_cell_setting	triclinic
loop_
_symmetry_equiv_pos_as_xyz
  x,y,z
_cell_length_a	9.0642
_cell_length_b	9.4507
_cell_length_c	19.858
_cell_angle_alpha	89.346
_cell_angle_beta	79.495
_cell_angle_gamma	86.028
loop_
_atom_site_label
_atom_site_type_symbol
_atom_site_fract_x
_atom_site_fract_y
_atom_site_fract_z
_atom_site_charge
Mof_Al	Al	0.73219	0.60809	0.50734	6.076
Mof_Al	Al	0.84986	0.1798	0.54609	6.184
Mof_Al	Al	0.15234	0.34285	0.29298	6.112
Mof_Al	Al	0.29532	0.56018	0.09902	6.533
Mof_Al	Al	0.72431	0.37902	0.11011	6.327
Mof_Al	Al	0.1596	0.13616	0.02662	6.498
Mof_P 	P 	0.5508	0.34872	0.5669	1.274
Mof_P 	P 	0.13101	0.14563	0.42498	1.616
Mof_P 	P 	0.02963	0.55824	0.40146	1.469
Mof_P 	P 	0.04195	0.33533	0.15391	1.68
Mof_P 	P 	0.44772	0.44925	0.21966	1.225
Mof_P 	P 	0.61995	0.64291	0.03069	1.629
Mof_P 	P 	0.84301	0.18807	0.97965	1.704
Mof_O 	O 	0.5436	0.306	0.64274	-0.784
Mof_H 	H 	0.5135	0.375	0.6673	0.36
Mof_O 	O 	0.4058	0.3155	0.54395	-1.472
Mof_O 	O 	0.588	0.5036	0.55588	-1.67
Mof_O 	O 	0.6812	0.2513	0.52618	-1.831
Mof_O 	O 	0.8609	0.5568	0.42867	-1.654
Mof_O 	O 	0.9713	0.1618	0.46694	-1.93
Mof_O 	O 	0.1776	0.9864	0.41586	-1.801
Mof_O 	O 	0.2444	0.215	0.46042	-1.695
Mof_O 	O 	0.1256	0.2053	0.35314	-1.791
Mof_O 	O 	0.1258	0.4677	0.4424	-1.757
Mof_O 	O 	0.0724	0.7151	0.39912	-1.831
Mof_O 	O 	0.0597	0.5039	0.32656	-1.724
Mof_O 	O 	0.0615	0.2933	0.22725	-1.793
Mof_O 	O 	0.1004	0.205	0.10864	-2.033
Mof_O 	O 	0.1199	0.4661	0.1293	-1.787
Mof_O 	O 	0.3466	0.3486	0.26695	-1.759
Mof_O 	O 	0.5386	0.5321	0.26008	-0.547
Mof_O 	O 	0.3447	0.5448	0.18262	-1.816
Mof_O 	O 	0.5567	0.3519	0.16731	-1.839
Mof_O 	O 	0.4607	0.6684	0.06912	-1.634
Mof_O 	O 	0.6268	0.5796	0.9598	-2.001
Mof_O 	O 	0.6898	0.7878	0.0231	-1.908
Mof_O 	O 	0.7163	0.5447	0.07174	-2.029
Mof_O 	O 	0.8713	0.3616	0.1559	-1.883
Mof_O 	O 	0.7561	0.2429	0.04891	-2.013
Mof_O 	O 	0.787	0.0437	0.96534	-1.89
Mof_O 	O 	0.826	0.2921	0.92223	-1.799
Mof_O 	O 	0.0115	0.1635	0.98168	-2.016
Mof_Al	Al	0.26781	0.39191	0.49266	6.076
Mof_Al	Al	0.15014	0.8202	0.45391	6.184
Mof_Al	Al	0.84766	0.65715	0.70702	6.112
Mof_Al	Al	0.70468	0.43982	0.90098	6.533
Mof_Al	Al	0.27569	0.62098	0.88989	6.327
Mof_Al	Al	0.8404	0.86384	0.97338	6.498
Mof_P 	P 	0.4492	0.65128	0.4331	1.274
Mof_P 	P 	0.86899	0.85437	0.57502	1.616
Mof_P 	P 	0.97037	0.44176	0.59854	1.469
Mof_P 	P 	0.95805	0.66467	0.84609	1.68
Mof_P 	P 	0.55228	0.55075	0.78034	1.225
Mof_P 	P 	0.38005	0.35709	0.96931	1.629
Mof_P 	P 	0.15699	0.81193	0.02035	1.704
Mof_O 	O 	0.4564	0.694	0.35726	-0.784
Mof_H 	H 	0.4865	0.625	0.3327	0.36
Mof_O 	O 	0.5942	0.6845	0.45605	-1.472
Mof_O 	O 	0.412	0.4964	0.44412	-1.67
Mof_O 	O 	0.3188	0.7487	0.47382	-1.831
Mof_O 	O 	0.1391	0.4432	0.57133	-1.654
Mof_O 	O 	0.0287	0.8382	0.53306	-1.93
Mof_O 	O 	0.8224	0.0136	0.58414	-1.801
Mof_O 	O 	0.7556	0.785	0.53958	-1.695
Mof_O 	O 	0.8744	0.7947	0.64686	-1.791
Mof_O 	O 	0.8742	0.5323	0.5576	-1.757
Mof_O 	O 	0.9276	0.2849	0.60088	-1.831
Mof_O 	O 	0.9403	0.4961	0.67344	-1.724
Mof_O 	O 	0.9385	0.7067	0.77275	-1.793
Mof_O 	O 	0.8996	0.795	0.89136	-2.033
Mof_O 	O 	0.8801	0.5339	0.8707	-1.787
Mof_O 	O 	0.6534	0.6514	0.73305	-1.759
Mof_O 	O 	0.4614	0.4679	0.73992	-0.547
Mof_O 	O 	0.6553	0.4552	0.81738	-1.816
Mof_O 	O 	0.4433	0.6481	0.83269	-1.839
Mof_O 	O 	0.5393	0.3316	0.93088	-1.634
Mof_O 	O 	0.3732	0.4204	0.0402	-2.001
Mof_O 	O 	0.3102	0.2122	0.9769	-1.908
Mof_O 	O 	0.2837	0.4553	0.92826	-2.029
Mof_O 	O 	0.1287	0.6384	0.8441	-1.883
Mof_O 	O 	0.2439	0.7571	0.95109	-2.013
Mof_O 	O 	0.213	0.9563	0.03466	-1.89
Mof_O 	O 	0.174	0.7079	0.07777	-1.799
Mof_O 	O 	0.9885	0.8365	0.01832	-2.016
_end
