data_functionalizedCrystal
_audit_creation_method	'EQeq! by Chris Wilmer'
_symmetry_space_group_name_H-M	'P1'
_symmetry_Int_Tables_number	1
_symmetry_cell_setting	triclinic
loop_
_symmetry_equiv_pos_as_xyz
  x,y,z
_cell_length_a	49.112
_cell_length_b	49.112
_cell_length_c	49.112
_cell_angle_alpha	90
_cell_angle_beta	90
_cell_angle_gamma	90
loop_
_atom_site_label
_atom_site_type_symbol
_atom_site_fract_x
_atom_site_fract_y
_atom_site_fract_z
_atom_site_charge
Mof_O 	O 	0.13383	0.40325	0.97304	-0.399
Mof_O 	O 	0.16941	0.36868	0.97214	-0.362
Mof_C 	C 	0.15494	0.39357	0.96534	0.271
Mof_C 	C 	0.17339	0.4073	0.94429	-0.019
Mof_C 	C 	0.19807	0.39941	0.93518	-0.05
Mof_H 	H 	0.208	0.386	0.9451	0.067
Mof_C 	C 	0.27747	0.37491	0.85153	-0.043
Mof_H 	H 	0.2615	0.3792	0.8412	0.047
Mof_C 	C 	0.30113	0.36359	0.8407	-0.067
Mof_H 	H 	0.3024	0.3591	0.8217	0.049
Mof_C 	C 	0.3269	0.36291	0.8876	-0.067
Mof_H 	H 	0.3431	0.3584	0.8977	0.047
Mof_C 	C 	0.3019	0.37484	0.8978	-0.043
Mof_H 	H 	0.3003	0.3792	0.9168	0.048
Mof_O 	O 	0.13383	0.90325	0.47304	-0.399
Mof_O 	O 	0.16941	0.86868	0.47214	-0.363
Mof_C 	C 	0.15494	0.89357	0.46534	0.271
Mof_C 	C 	0.17339	0.9073	0.44429	-0.019
Mof_C 	C 	0.19807	0.89941	0.43518	-0.05
Mof_H 	H 	0.208	0.886	0.4451	0.067
Mof_C 	C 	0.27747	0.87491	0.35153	-0.043
Mof_H 	H 	0.2615	0.8792	0.3412	0.047
Mof_C 	C 	0.30113	0.86359	0.3407	-0.067
Mof_H 	H 	0.3024	0.8591	0.3217	0.049
Mof_C 	C 	0.3269	0.86291	0.3876	-0.067
Mof_H 	H 	0.3431	0.8584	0.3977	0.047
Mof_C 	C 	0.3019	0.87484	0.3978	-0.043
Mof_H 	H 	0.3003	0.8792	0.4168	0.048
Mof_O 	O 	0.63383	0.40325	0.47304	-0.399
Mof_O 	O 	0.66941	0.36868	0.47214	-0.363
Mof_C 	C 	0.65494	0.39357	0.46534	0.271
Mof_C 	C 	0.67339	0.4073	0.44429	-0.019
Mof_C 	C 	0.69807	0.39941	0.43518	-0.05
Mof_H 	H 	0.708	0.386	0.4451	0.067
Mof_C 	C 	0.77747	0.37491	0.35153	-0.043
Mof_H 	H 	0.7615	0.3792	0.3412	0.047
Mof_C 	C 	0.80113	0.36359	0.3407	-0.067
Mof_H 	H 	0.8024	0.3591	0.3217	0.049
Mof_C 	C 	0.8269	0.36291	0.3876	-0.067
Mof_H 	H 	0.8431	0.3584	0.3977	0.046
Mof_C 	C 	0.8019	0.37484	0.3978	-0.044
Mof_H 	H 	0.8003	0.3792	0.4168	0.047
Mof_O 	O 	0.63383	0.90325	0.97304	-0.399
Mof_O 	O 	0.66941	0.86868	0.97214	-0.363
Mof_C 	C 	0.65494	0.89357	0.96534	0.27
Mof_C 	C 	0.67339	0.9073	0.94429	-0.02
Mof_C 	C 	0.69807	0.89941	0.93518	-0.051
Mof_H 	H 	0.708	0.886	0.9451	0.066
Mof_C 	C 	0.77747	0.87491	0.85153	-0.044
Mof_H 	H 	0.7615	0.8792	0.8412	0.046
Mof_C 	C 	0.80113	0.86359	0.8407	-0.068
Mof_H 	H 	0.8024	0.8591	0.8217	0.048
Mof_C 	C 	0.8269	0.86291	0.8876	-0.068
Mof_H 	H 	0.8431	0.8584	0.8977	0.046
Mof_C 	C 	0.8019	0.87484	0.8978	-0.044
Mof_H 	H 	0.8003	0.8792	0.9168	0.047
Mof_O 	O 	0.86617	0.59675	0.97304	-0.399
Mof_O 	O 	0.83059	0.63132	0.97214	-0.363
Mof_C 	C 	0.84506	0.60643	0.96534	0.27
Mof_C 	C 	0.82661	0.5927	0.94429	-0.02
Mof_C 	C 	0.80193	0.60059	0.93518	-0.051
Mof_H 	H 	0.792	0.614	0.9451	0.066
Mof_C 	C 	0.72253	0.62509	0.85153	-0.044
Mof_H 	H 	0.7385	0.6208	0.8412	0.046
Mof_C 	C 	0.69887	0.63641	0.8407	-0.068
Mof_H 	H 	0.6976	0.6409	0.8217	0.048
Mof_C 	C 	0.6731	0.63709	0.8876	-0.068
Mof_H 	H 	0.6569	0.6416	0.8977	0.046
Mof_C 	C 	0.6981	0.62516	0.8978	-0.044
Mof_H 	H 	0.6997	0.6208	0.9168	0.047
Mof_O 	O 	0.86617	0.09675	0.47304	-0.4
Mof_O 	O 	0.83059	0.13132	0.47214	-0.364
Mof_C 	C 	0.84506	0.10643	0.46534	0.27
Mof_C 	C 	0.82661	0.0927	0.44429	-0.02
Mof_C 	C 	0.80193	0.10059	0.43518	-0.051
Mof_H 	H 	0.792	0.114	0.4451	0.066
Mof_C 	C 	0.72253	0.12509	0.35153	-0.044
Mof_H 	H 	0.7385	0.1208	0.3412	0.046
Mof_C 	C 	0.69887	0.13641	0.3407	-0.068
Mof_H 	H 	0.6976	0.1409	0.3217	0.048
Mof_C 	C 	0.6731	0.13709	0.3876	-0.068
Mof_H 	H 	0.6569	0.1416	0.3977	0.046
Mof_C 	C 	0.6981	0.12516	0.3978	-0.044
Mof_H 	H 	0.6997	0.1208	0.4168	0.046
Mof_O 	O 	0.36617	0.59675	0.47304	-0.4
Mof_O 	O 	0.33059	0.63132	0.47214	-0.364
Mof_C 	C 	0.34506	0.60643	0.46534	0.27
Mof_C 	C 	0.32661	0.5927	0.44429	-0.02
Mof_C 	C 	0.30193	0.60059	0.43518	-0.051
Mof_H 	H 	0.292	0.614	0.4451	0.066
Mof_C 	C 	0.22253	0.62509	0.35153	-0.044
Mof_H 	H 	0.2385	0.6208	0.3412	0.046
Mof_C 	C 	0.19887	0.63641	0.3407	-0.068
Mof_H 	H 	0.1976	0.6409	0.3217	0.048
Mof_C 	C 	0.1731	0.63709	0.3876	-0.068
Mof_H 	H 	0.1569	0.6416	0.3977	0.046
Mof_C 	C 	0.1981	0.62516	0.3978	-0.044
Mof_H 	H 	0.1997	0.6208	0.4168	0.047
Mof_O 	O 	0.36617	0.09675	0.97304	-0.4
Mof_O 	O 	0.33059	0.13132	0.97214	-0.363
Mof_C 	C 	0.34506	0.10643	0.96534	0.27
Mof_C 	C 	0.32661	0.0927	0.94429	-0.02
Mof_C 	C 	0.30193	0.10059	0.93518	-0.051
Mof_H 	H 	0.292	0.114	0.9451	0.066
Mof_C 	C 	0.22253	0.12509	0.85153	-0.044
Mof_H 	H 	0.2385	0.1208	0.8412	0.046
Mof_C 	C 	0.19887	0.13641	0.8407	-0.068
Mof_H 	H 	0.1976	0.1409	0.8217	0.048
Mof_C 	C 	0.1731	0.13709	0.8876	-0.068
Mof_H 	H 	0.1569	0.1416	0.8977	0.046
Mof_C 	C 	0.1981	0.12516	0.8978	-0.044
Mof_H 	H 	0.1997	0.1208	0.9168	0.047
Mof_O 	O 	0.86617	0.40325	0.02696	-0.401
Mof_O 	O 	0.83059	0.36868	0.02786	-0.364
Mof_C 	C 	0.84506	0.39357	0.03466	0.27
Mof_C 	C 	0.82661	0.4073	0.05571	-0.021
Mof_C 	C 	0.80193	0.39941	0.06482	-0.051
Mof_H 	H 	0.792	0.386	0.0549	0.065
Mof_C 	C 	0.72253	0.37491	0.14847	-0.044
Mof_H 	H 	0.7385	0.3792	0.1588	0.046
Mof_C 	C 	0.69887	0.36359	0.1593	-0.068
Mof_H 	H 	0.6976	0.3591	0.1783	0.048
Mof_C 	C 	0.6731	0.36291	0.1124	-0.068
Mof_H 	H 	0.6569	0.3584	0.1023	0.046
Mof_C 	C 	0.6981	0.37484	0.1022	-0.044
Mof_H 	H 	0.6997	0.3792	0.0832	0.046
Mof_O 	O 	0.86617	0.90325	0.52696	-0.4
Mof_O 	O 	0.83059	0.86868	0.52786	-0.364
Mof_C 	C 	0.84506	0.89357	0.53466	0.27
Mof_C 	C 	0.82661	0.9073	0.55571	-0.02
Mof_C 	C 	0.80193	0.89941	0.56482	-0.051
Mof_H 	H 	0.792	0.886	0.5549	0.066
Mof_C 	C 	0.72253	0.87491	0.64847	-0.044
Mof_H 	H 	0.7385	0.8792	0.6588	0.046
Mof_C 	C 	0.69887	0.86359	0.6593	-0.068
Mof_H 	H 	0.6976	0.8591	0.6783	0.048
Mof_C 	C 	0.6731	0.86291	0.6124	-0.068
Mof_H 	H 	0.6569	0.8584	0.6023	0.046
Mof_C 	C 	0.6981	0.87484	0.6022	-0.044
Mof_H 	H 	0.6997	0.8792	0.5832	0.047
Mof_O 	O 	0.36617	0.40325	0.52696	-0.4
Mof_O 	O 	0.33059	0.36868	0.52786	-0.364
Mof_C 	C 	0.34506	0.39357	0.53466	0.27
Mof_C 	C 	0.32661	0.4073	0.55571	-0.02
Mof_C 	C 	0.30193	0.39941	0.56482	-0.051
Mof_H 	H 	0.292	0.386	0.5549	0.066
Mof_C 	C 	0.22253	0.37491	0.64847	-0.044
Mof_H 	H 	0.2385	0.3792	0.6588	0.046
Mof_C 	C 	0.19887	0.36359	0.6593	-0.068
Mof_H 	H 	0.1976	0.3591	0.6783	0.048
Mof_C 	C 	0.1731	0.36291	0.6124	-0.068
Mof_H 	H 	0.1569	0.3584	0.6023	0.046
Mof_C 	C 	0.1981	0.37484	0.6022	-0.044
Mof_H 	H 	0.1997	0.3792	0.5832	0.047
Mof_O 	O 	0.36617	0.90325	0.02696	-0.401
Mof_O 	O 	0.33059	0.86868	0.02786	-0.364
Mof_C 	C 	0.34506	0.89357	0.03466	0.27
Mof_C 	C 	0.32661	0.9073	0.05571	-0.02
Mof_C 	C 	0.30193	0.89941	0.06482	-0.051
Mof_H 	H 	0.292	0.886	0.0549	0.066
Mof_C 	C 	0.22253	0.87491	0.14847	-0.044
Mof_H 	H 	0.2385	0.8792	0.1588	0.046
Mof_C 	C 	0.19887	0.86359	0.1593	-0.068
Mof_H 	H 	0.1976	0.8591	0.1783	0.048
Mof_C 	C 	0.1731	0.86291	0.1124	-0.068
Mof_H 	H 	0.1569	0.8584	0.1023	0.046
Mof_C 	C 	0.1981	0.87484	0.1022	-0.044
Mof_H 	H 	0.1997	0.8792	0.0832	0.046
Mof_O 	O 	0.13383	0.59675	0.02696	-0.401
Mof_O 	O 	0.16941	0.63132	0.02786	-0.364
Mof_C 	C 	0.15494	0.60643	0.03466	0.27
Mof_C 	C 	0.17339	0.5927	0.05571	-0.021
Mof_C 	C 	0.19807	0.60059	0.06482	-0.051
Mof_H 	H 	0.208	0.614	0.0549	0.065
Mof_C 	C 	0.27747	0.62509	0.14847	-0.044
Mof_H 	H 	0.2615	0.6208	0.1588	0.046
Mof_C 	C 	0.30113	0.63641	0.1593	-0.068
Mof_H 	H 	0.3024	0.6409	0.1783	0.048
Mof_C 	C 	0.3269	0.63709	0.1124	-0.068
Mof_H 	H 	0.3431	0.6416	0.1023	0.046
Mof_C 	C 	0.3019	0.62516	0.1022	-0.044
Mof_H 	H 	0.3003	0.6208	0.0832	0.046
Mof_O 	O 	0.13383	0.09675	0.52696	-0.4
Mof_O 	O 	0.16941	0.13132	0.52786	-0.364
Mof_C 	C 	0.15494	0.10643	0.53466	0.27
Mof_C 	C 	0.17339	0.0927	0.55571	-0.02
Mof_C 	C 	0.19807	0.10059	0.56482	-0.051
Mof_H 	H 	0.208	0.114	0.5549	0.066
Mof_C 	C 	0.27747	0.12509	0.64847	-0.044
Mof_H 	H 	0.2615	0.1208	0.6588	0.046
Mof_C 	C 	0.30113	0.13641	0.6593	-0.068
Mof_H 	H 	0.3024	0.1409	0.6783	0.048
Mof_C 	C 	0.3269	0.13709	0.6124	-0.068
Mof_H 	H 	0.3431	0.1416	0.6023	0.046
Mof_C 	C 	0.3019	0.12516	0.6022	-0.044
Mof_H 	H 	0.3003	0.1208	0.5832	0.047
Mof_O 	O 	0.63383	0.59675	0.52696	-0.4
Mof_O 	O 	0.66941	0.63132	0.52786	-0.364
Mof_C 	C 	0.65494	0.60643	0.53466	0.27
Mof_C 	C 	0.67339	0.5927	0.55571	-0.02
Mof_C 	C 	0.69807	0.60059	0.56482	-0.051
Mof_H 	H 	0.708	0.614	0.5549	0.066
Mof_C 	C 	0.77747	0.62509	0.64847	-0.044
Mof_H 	H 	0.7615	0.6208	0.6588	0.046
Mof_C 	C 	0.80113	0.63641	0.6593	-0.068
Mof_H 	H 	0.8024	0.6409	0.6783	0.048
Mof_C 	C 	0.8269	0.63709	0.6124	-0.068
Mof_H 	H 	0.8431	0.6416	0.6023	0.046
Mof_C 	C 	0.8019	0.62516	0.6022	-0.044
Mof_H 	H 	0.8003	0.6208	0.5832	0.047
Mof_O 	O 	0.63383	0.09675	0.02696	-0.401
Mof_O 	O 	0.66941	0.13132	0.02786	-0.364
Mof_C 	C 	0.65494	0.10643	0.03466	0.27
Mof_C 	C 	0.67339	0.0927	0.05571	-0.021
Mof_C 	C 	0.69807	0.10059	0.06482	-0.051
Mof_H 	H 	0.708	0.114	0.0549	0.065
Mof_C 	C 	0.77747	0.12509	0.14847	-0.044
Mof_H 	H 	0.7615	0.1208	0.1588	0.046
Mof_C 	C 	0.80113	0.13641	0.1593	-0.068
Mof_H 	H 	0.8024	0.1409	0.1783	0.048
Mof_C 	C 	0.8269	0.13709	0.1124	-0.068
Mof_H 	H 	0.8431	0.1416	0.1023	0.046
Mof_C 	C 	0.8019	0.12516	0.1022	-0.044
Mof_H 	H 	0.8003	0.1208	0.0832	0.046
Mof_O 	O 	0.97304	0.13383	0.40325	-0.4
Mof_O 	O 	0.97214	0.16941	0.36868	-0.363
Mof_C 	C 	0.96534	0.15494	0.39357	0.27
Mof_C 	C 	0.94429	0.17339	0.4073	-0.02
Mof_C 	C 	0.93518	0.19807	0.39941	-0.051
Mof_H 	H 	0.9451	0.208	0.386	0.066
Mof_C 	C 	0.85153	0.27747	0.37491	-0.044
Mof_H 	H 	0.8412	0.2615	0.3792	0.046
Mof_C 	C 	0.8407	0.30113	0.36359	-0.068
Mof_H 	H 	0.8217	0.3024	0.3591	0.048
Mof_C 	C 	0.8876	0.3269	0.36291	-0.068
Mof_H 	H 	0.8977	0.3431	0.3584	0.046
Mof_C 	C 	0.8978	0.3019	0.37484	-0.044
Mof_H 	H 	0.9168	0.3003	0.3792	0.047
Mof_O 	O 	0.97304	0.63383	0.90325	-0.399
Mof_O 	O 	0.97214	0.66941	0.86868	-0.363
Mof_C 	C 	0.96534	0.65494	0.89357	0.27
Mof_C 	C 	0.94429	0.67339	0.9073	-0.02
Mof_C 	C 	0.93518	0.69807	0.89941	-0.051
Mof_H 	H 	0.9451	0.708	0.886	0.066
Mof_C 	C 	0.85153	0.77747	0.87491	-0.044
Mof_H 	H 	0.8412	0.7615	0.8792	0.046
Mof_C 	C 	0.8407	0.80113	0.86359	-0.068
Mof_H 	H 	0.8217	0.8024	0.8591	0.048
Mof_C 	C 	0.8876	0.8269	0.86291	-0.068
Mof_H 	H 	0.8977	0.8431	0.8584	0.046
Mof_C 	C 	0.8978	0.8019	0.87484	-0.044
Mof_H 	H 	0.9168	0.8003	0.8792	0.047
Mof_O 	O 	0.47304	0.13383	0.90325	-0.4
Mof_O 	O 	0.47214	0.16941	0.86868	-0.364
Mof_C 	C 	0.46534	0.15494	0.89357	0.27
Mof_C 	C 	0.44429	0.17339	0.9073	-0.02
Mof_C 	C 	0.43518	0.19807	0.89941	-0.051
Mof_H 	H 	0.4451	0.208	0.886	0.066
Mof_C 	C 	0.35153	0.27747	0.87491	-0.044
Mof_H 	H 	0.3412	0.2615	0.8792	0.046
Mof_C 	C 	0.3407	0.30113	0.86359	-0.068
Mof_H 	H 	0.3217	0.3024	0.8591	0.048
Mof_C 	C 	0.3876	0.3269	0.86291	-0.068
Mof_H 	H 	0.3977	0.3431	0.8584	0.046
Mof_C 	C 	0.3978	0.3019	0.87484	-0.044
Mof_H 	H 	0.4168	0.3003	0.8792	0.047
Mof_O 	O 	0.47304	0.63383	0.40325	-0.4
Mof_O 	O 	0.47214	0.66941	0.36868	-0.364
Mof_C 	C 	0.46534	0.65494	0.39357	0.27
Mof_C 	C 	0.44429	0.67339	0.4073	-0.02
Mof_C 	C 	0.43518	0.69807	0.39941	-0.051
Mof_H 	H 	0.4451	0.708	0.386	0.066
Mof_C 	C 	0.35153	0.77747	0.37491	-0.044
Mof_H 	H 	0.3412	0.7615	0.3792	0.046
Mof_C 	C 	0.3407	0.80113	0.36359	-0.068
Mof_H 	H 	0.3217	0.8024	0.3591	0.048
Mof_C 	C 	0.3876	0.8269	0.36291	-0.068
Mof_H 	H 	0.3977	0.8431	0.3584	0.046
Mof_C 	C 	0.3978	0.8019	0.37484	-0.044
Mof_H 	H 	0.4168	0.8003	0.3792	0.047
Mof_O 	O 	0.97304	0.86617	0.59675	-0.399
Mof_O 	O 	0.97214	0.83059	0.63132	-0.363
Mof_C 	C 	0.96534	0.84506	0.60643	0.27
Mof_C 	C 	0.94429	0.82661	0.5927	-0.02
Mof_C 	C 	0.93518	0.80193	0.60059	-0.051
Mof_H 	H 	0.9451	0.792	0.614	0.066
Mof_C 	C 	0.85153	0.72253	0.62509	-0.044
Mof_H 	H 	0.8412	0.7385	0.6208	0.046
Mof_C 	C 	0.8407	0.69887	0.63641	-0.068
Mof_H 	H 	0.8217	0.6976	0.6409	0.048
Mof_C 	C 	0.8876	0.6731	0.63709	-0.068
Mof_H 	H 	0.8977	0.6569	0.6416	0.046
Mof_C 	C 	0.8978	0.6981	0.62516	-0.044
Mof_H 	H 	0.9168	0.6997	0.6208	0.047
Mof_O 	O 	0.97304	0.36617	0.09675	-0.4
Mof_O 	O 	0.97214	0.33059	0.13132	-0.363
Mof_C 	C 	0.96534	0.34506	0.10643	0.27
Mof_C 	C 	0.94429	0.32661	0.0927	-0.02
Mof_C 	C 	0.93518	0.30193	0.10059	-0.051
Mof_H 	H 	0.9451	0.292	0.114	0.066
Mof_C 	C 	0.85153	0.22253	0.12509	-0.044
Mof_H 	H 	0.8412	0.2385	0.1208	0.046
Mof_C 	C 	0.8407	0.19887	0.13641	-0.068
Mof_H 	H 	0.8217	0.1976	0.1409	0.048
Mof_C 	C 	0.8876	0.1731	0.13709	-0.068
Mof_H 	H 	0.8977	0.1569	0.1416	0.046
Mof_C 	C 	0.8978	0.1981	0.12516	-0.044
Mof_H 	H 	0.9168	0.1997	0.1208	0.047
Mof_O 	O 	0.47304	0.86617	0.09675	-0.4
Mof_O 	O 	0.47214	0.83059	0.13132	-0.364
Mof_C 	C 	0.46534	0.84506	0.10643	0.27
Mof_C 	C 	0.44429	0.82661	0.0927	-0.02
Mof_C 	C 	0.43518	0.80193	0.10059	-0.051
Mof_H 	H 	0.4451	0.792	0.114	0.066
Mof_C 	C 	0.35153	0.72253	0.12509	-0.044
Mof_H 	H 	0.3412	0.7385	0.1208	0.046
Mof_C 	C 	0.3407	0.69887	0.13641	-0.068
Mof_H 	H 	0.3217	0.6976	0.1409	0.048
Mof_C 	C 	0.3876	0.6731	0.13709	-0.068
Mof_H 	H 	0.3977	0.6569	0.1416	0.046
Mof_C 	C 	0.3978	0.6981	0.12516	-0.044
Mof_H 	H 	0.4168	0.6997	0.1208	0.046
Mof_O 	O 	0.47304	0.36617	0.59675	-0.4
Mof_O 	O 	0.47214	0.33059	0.63132	-0.364
Mof_C 	C 	0.46534	0.34506	0.60643	0.27
Mof_C 	C 	0.44429	0.32661	0.5927	-0.02
Mof_C 	C 	0.43518	0.30193	0.60059	-0.051
Mof_H 	H 	0.4451	0.292	0.614	0.066
Mof_C 	C 	0.35153	0.22253	0.62509	-0.044
Mof_H 	H 	0.3412	0.2385	0.6208	0.046
Mof_C 	C 	0.3407	0.19887	0.63641	-0.068
Mof_H 	H 	0.3217	0.1976	0.6409	0.048
Mof_C 	C 	0.3876	0.1731	0.63709	-0.068
Mof_H 	H 	0.3977	0.1569	0.6416	0.046
Mof_C 	C 	0.3978	0.1981	0.62516	-0.044
Mof_H 	H 	0.4168	0.1997	0.6208	0.047
Mof_O 	O 	0.02696	0.86617	0.40325	-0.401
Mof_O 	O 	0.02786	0.83059	0.36868	-0.364
Mof_C 	C 	0.03466	0.84506	0.39357	0.27
Mof_C 	C 	0.05571	0.82661	0.4073	-0.021
Mof_C 	C 	0.06482	0.80193	0.39941	-0.051
Mof_H 	H 	0.0549	0.792	0.386	0.065
Mof_C 	C 	0.14847	0.72253	0.37491	-0.044
Mof_H 	H 	0.1588	0.7385	0.3792	0.046
Mof_C 	C 	0.1593	0.69887	0.36359	-0.068
Mof_H 	H 	0.1783	0.6976	0.3591	0.048
Mof_C 	C 	0.1124	0.6731	0.36291	-0.068
Mof_H 	H 	0.1023	0.6569	0.3584	0.046
Mof_C 	C 	0.1022	0.6981	0.37484	-0.044
Mof_H 	H 	0.0832	0.6997	0.3792	0.046
Mof_O 	O 	0.02696	0.36617	0.90325	-0.401
Mof_O 	O 	0.02786	0.33059	0.86868	-0.364
Mof_C 	C 	0.03466	0.34506	0.89357	0.27
Mof_C 	C 	0.05571	0.32661	0.9073	-0.02
Mof_C 	C 	0.06482	0.30193	0.89941	-0.051
Mof_H 	H 	0.0549	0.292	0.886	0.066
Mof_C 	C 	0.14847	0.22253	0.87491	-0.044
Mof_H 	H 	0.1588	0.2385	0.8792	0.046
Mof_C 	C 	0.1593	0.19887	0.86359	-0.068
Mof_H 	H 	0.1783	0.1976	0.8591	0.048
Mof_C 	C 	0.1124	0.1731	0.86291	-0.068
Mof_H 	H 	0.1023	0.1569	0.8584	0.046
Mof_C 	C 	0.1022	0.1981	0.87484	-0.044
Mof_H 	H 	0.0832	0.1997	0.8792	0.046
Mof_O 	O 	0.52696	0.86617	0.90325	-0.4
Mof_O 	O 	0.52786	0.83059	0.86868	-0.364
Mof_C 	C 	0.53466	0.84506	0.89357	0.27
Mof_C 	C 	0.55571	0.82661	0.9073	-0.02
Mof_C 	C 	0.56482	0.80193	0.89941	-0.051
Mof_H 	H 	0.5549	0.792	0.886	0.066
Mof_C 	C 	0.64847	0.72253	0.87491	-0.044
Mof_H 	H 	0.6588	0.7385	0.8792	0.046
Mof_C 	C 	0.6593	0.69887	0.86359	-0.068
Mof_H 	H 	0.6783	0.6976	0.8591	0.048
Mof_C 	C 	0.6124	0.6731	0.86291	-0.068
Mof_H 	H 	0.6023	0.6569	0.8584	0.046
Mof_C 	C 	0.6022	0.6981	0.87484	-0.044
Mof_H 	H 	0.5832	0.6997	0.8792	0.047
Mof_O 	O 	0.52696	0.36617	0.40325	-0.4
Mof_O 	O 	0.52786	0.33059	0.36868	-0.364
Mof_C 	C 	0.53466	0.34506	0.39357	0.27
Mof_C 	C 	0.55571	0.32661	0.4073	-0.02
Mof_C 	C 	0.56482	0.30193	0.39941	-0.051
Mof_H 	H 	0.5549	0.292	0.386	0.066
Mof_C 	C 	0.64847	0.22253	0.37491	-0.044
Mof_H 	H 	0.6588	0.2385	0.3792	0.046
Mof_C 	C 	0.6593	0.19887	0.36359	-0.068
Mof_H 	H 	0.6783	0.1976	0.3591	0.048
Mof_C 	C 	0.6124	0.1731	0.36291	-0.068
Mof_H 	H 	0.6023	0.1569	0.3584	0.046
Mof_C 	C 	0.6022	0.1981	0.37484	-0.044
Mof_H 	H 	0.5832	0.1997	0.3792	0.047
Mof_O 	O 	0.02696	0.13383	0.59675	-0.401
Mof_O 	O 	0.02786	0.16941	0.63132	-0.364
Mof_C 	C 	0.03466	0.15494	0.60643	0.27
Mof_C 	C 	0.05571	0.17339	0.5927	-0.021
Mof_C 	C 	0.06482	0.19807	0.60059	-0.051
Mof_H 	H 	0.0549	0.208	0.614	0.065
Mof_C 	C 	0.14847	0.27747	0.62509	-0.044
Mof_H 	H 	0.1588	0.2615	0.6208	0.046
Mof_C 	C 	0.1593	0.30113	0.63641	-0.068
Mof_H 	H 	0.1783	0.3024	0.6409	0.048
Mof_C 	C 	0.1124	0.3269	0.63709	-0.068
Mof_H 	H 	0.1023	0.3431	0.6416	0.046
Mof_C 	C 	0.1022	0.3019	0.62516	-0.044
Mof_H 	H 	0.0832	0.3003	0.6208	0.046
Mof_O 	O 	0.02696	0.63383	0.09675	-0.401
Mof_O 	O 	0.02786	0.66941	0.13132	-0.364
Mof_C 	C 	0.03466	0.65494	0.10643	0.27
Mof_C 	C 	0.05571	0.67339	0.0927	-0.021
Mof_C 	C 	0.06482	0.69807	0.10059	-0.051
Mof_H 	H 	0.0549	0.708	0.114	0.065
Mof_C 	C 	0.14847	0.77747	0.12509	-0.044
Mof_H 	H 	0.1588	0.7615	0.1208	0.046
Mof_C 	C 	0.1593	0.80113	0.13641	-0.068
Mof_H 	H 	0.1783	0.8024	0.1409	0.048
Mof_C 	C 	0.1124	0.8269	0.13709	-0.068
Mof_H 	H 	0.1023	0.8431	0.1416	0.046
Mof_C 	C 	0.1022	0.8019	0.12516	-0.044
Mof_H 	H 	0.0832	0.8003	0.1208	0.046
Mof_O 	O 	0.52696	0.13383	0.09675	-0.4
Mof_O 	O 	0.52786	0.16941	0.13132	-0.364
Mof_C 	C 	0.53466	0.15494	0.10643	0.27
Mof_C 	C 	0.55571	0.17339	0.0927	-0.02
Mof_C 	C 	0.56482	0.19807	0.10059	-0.051
Mof_H 	H 	0.5549	0.208	0.114	0.066
Mof_C 	C 	0.64847	0.27747	0.12509	-0.044
Mof_H 	H 	0.6588	0.2615	0.1208	0.046
Mof_C 	C 	0.6593	0.30113	0.13641	-0.068
Mof_H 	H 	0.6783	0.3024	0.1409	0.048
Mof_C 	C 	0.6124	0.3269	0.13709	-0.068
Mof_H 	H 	0.6023	0.3431	0.1416	0.046
Mof_C 	C 	0.6022	0.3019	0.12516	-0.044
Mof_H 	H 	0.5832	0.3003	0.1208	0.047
Mof_O 	O 	0.52696	0.63383	0.59675	-0.4
Mof_O 	O 	0.52786	0.66941	0.63132	-0.364
Mof_C 	C 	0.53466	0.65494	0.60643	0.27
Mof_C 	C 	0.55571	0.67339	0.5927	-0.02
Mof_C 	C 	0.56482	0.69807	0.60059	-0.051
Mof_H 	H 	0.5549	0.708	0.614	0.066
Mof_C 	C 	0.64847	0.77747	0.62509	-0.044
Mof_H 	H 	0.6588	0.7615	0.6208	0.046
Mof_C 	C 	0.6593	0.80113	0.63641	-0.068
Mof_H 	H 	0.6783	0.8024	0.6409	0.048
Mof_C 	C 	0.6124	0.8269	0.63709	-0.068
Mof_H 	H 	0.6023	0.8431	0.6416	0.046
Mof_C 	C 	0.6022	0.8019	0.62516	-0.044
Mof_H 	H 	0.5832	0.8003	0.6208	0.047
Mof_O 	O 	0.40325	0.97304	0.13383	-0.4
Mof_O 	O 	0.36868	0.97214	0.16941	-0.363
Mof_C 	C 	0.39357	0.96534	0.15494	0.27
Mof_C 	C 	0.4073	0.94429	0.17339	-0.02
Mof_C 	C 	0.39941	0.93518	0.19807	-0.051
Mof_H 	H 	0.386	0.9451	0.208	0.066
Mof_C 	C 	0.37491	0.85153	0.27747	-0.044
Mof_H 	H 	0.3792	0.8412	0.2615	0.046
Mof_C 	C 	0.36359	0.8407	0.30113	-0.068
Mof_H 	H 	0.3591	0.8217	0.3024	0.048
Mof_C 	C 	0.36291	0.8876	0.3269	-0.068
Mof_H 	H 	0.3584	0.8977	0.3431	0.046
Mof_C 	C 	0.37484	0.8978	0.3019	-0.044
Mof_H 	H 	0.3792	0.9168	0.3003	0.047
Mof_O 	O 	0.40325	0.47304	0.63383	-0.4
Mof_O 	O 	0.36868	0.47214	0.66941	-0.364
Mof_C 	C 	0.39357	0.46534	0.65494	0.27
Mof_C 	C 	0.4073	0.44429	0.67339	-0.02
Mof_C 	C 	0.39941	0.43518	0.69807	-0.051
Mof_H 	H 	0.386	0.4451	0.708	0.066
Mof_C 	C 	0.37491	0.35153	0.77747	-0.044
Mof_H 	H 	0.3792	0.3412	0.7615	0.046
Mof_C 	C 	0.36359	0.3407	0.80113	-0.068
Mof_H 	H 	0.3591	0.3217	0.8024	0.048
Mof_C 	C 	0.36291	0.3876	0.8269	-0.068
Mof_H 	H 	0.3584	0.3977	0.8431	0.046
Mof_C 	C 	0.37484	0.3978	0.8019	-0.044
Mof_H 	H 	0.3792	0.4168	0.8003	0.047
Mof_O 	O 	0.90325	0.97304	0.63383	-0.399
Mof_O 	O 	0.86868	0.97214	0.66941	-0.363
Mof_C 	C 	0.89357	0.96534	0.65494	0.27
Mof_C 	C 	0.9073	0.94429	0.67339	-0.02
Mof_C 	C 	0.89941	0.93518	0.69807	-0.051
Mof_H 	H 	0.886	0.9451	0.708	0.066
Mof_C 	C 	0.87491	0.85153	0.77747	-0.044
Mof_H 	H 	0.8792	0.8412	0.7615	0.046
Mof_C 	C 	0.86359	0.8407	0.80113	-0.068
Mof_H 	H 	0.8591	0.8217	0.8024	0.048
Mof_C 	C 	0.86291	0.8876	0.8269	-0.068
Mof_H 	H 	0.8584	0.8977	0.8431	0.046
Mof_C 	C 	0.87484	0.8978	0.8019	-0.044
Mof_H 	H 	0.8792	0.9168	0.8003	0.047
Mof_O 	O 	0.90325	0.47304	0.13383	-0.4
Mof_O 	O 	0.86868	0.47214	0.16941	-0.364
Mof_C 	C 	0.89357	0.46534	0.15494	0.27
Mof_C 	C 	0.9073	0.44429	0.17339	-0.02
Mof_C 	C 	0.89941	0.43518	0.19807	-0.051
Mof_H 	H 	0.886	0.4451	0.208	0.066
Mof_C 	C 	0.87491	0.35153	0.27747	-0.044
Mof_H 	H 	0.8792	0.3412	0.2615	0.046
Mof_C 	C 	0.86359	0.3407	0.30113	-0.068
Mof_H 	H 	0.8591	0.3217	0.3024	0.048
Mof_C 	C 	0.86291	0.3876	0.3269	-0.068
Mof_H 	H 	0.8584	0.3977	0.3431	0.046
Mof_C 	C 	0.87484	0.3978	0.3019	-0.044
Mof_H 	H 	0.8792	0.4168	0.3003	0.047
Mof_O 	O 	0.59675	0.97304	0.86617	-0.399
Mof_O 	O 	0.63132	0.97214	0.83059	-0.363
Mof_C 	C 	0.60643	0.96534	0.84506	0.27
Mof_C 	C 	0.5927	0.94429	0.82661	-0.02
Mof_C 	C 	0.60059	0.93518	0.80193	-0.051
Mof_H 	H 	0.614	0.9451	0.792	0.066
Mof_C 	C 	0.62509	0.85153	0.72253	-0.044
Mof_H 	H 	0.6208	0.8412	0.7385	0.046
Mof_C 	C 	0.63641	0.8407	0.69887	-0.068
Mof_H 	H 	0.6409	0.8217	0.6976	0.048
Mof_C 	C 	0.63709	0.8876	0.6731	-0.068
Mof_H 	H 	0.6416	0.8977	0.6569	0.046
Mof_C 	C 	0.62516	0.8978	0.6981	-0.044
Mof_H 	H 	0.6208	0.9168	0.6997	0.047
Mof_O 	O 	0.59675	0.47304	0.36617	-0.4
Mof_O 	O 	0.63132	0.47214	0.33059	-0.364
Mof_C 	C 	0.60643	0.46534	0.34506	0.27
Mof_C 	C 	0.5927	0.44429	0.32661	-0.02
Mof_C 	C 	0.60059	0.43518	0.30193	-0.051
Mof_H 	H 	0.614	0.4451	0.292	0.066
Mof_C 	C 	0.62509	0.35153	0.22253	-0.044
Mof_H 	H 	0.6208	0.3412	0.2385	0.046
Mof_C 	C 	0.63641	0.3407	0.19887	-0.068
Mof_H 	H 	0.6409	0.3217	0.1976	0.048
Mof_C 	C 	0.63709	0.3876	0.1731	-0.068
Mof_H 	H 	0.6416	0.3977	0.1569	0.046
Mof_C 	C 	0.62516	0.3978	0.1981	-0.044
Mof_H 	H 	0.6208	0.4168	0.1997	0.047
Mof_O 	O 	0.09675	0.97304	0.36617	-0.4
Mof_O 	O 	0.13132	0.97214	0.33059	-0.363
Mof_C 	C 	0.10643	0.96534	0.34506	0.27
Mof_C 	C 	0.0927	0.94429	0.32661	-0.02
Mof_C 	C 	0.10059	0.93518	0.30193	-0.051
Mof_H 	H 	0.114	0.9451	0.292	0.066
Mof_C 	C 	0.12509	0.85153	0.22253	-0.044
Mof_H 	H 	0.1208	0.8412	0.2385	0.046
Mof_C 	C 	0.13641	0.8407	0.19887	-0.068
Mof_H 	H 	0.1409	0.8217	0.1976	0.048
Mof_C 	C 	0.13709	0.8876	0.1731	-0.068
Mof_H 	H 	0.1416	0.8977	0.1569	0.046
Mof_C 	C 	0.12516	0.8978	0.1981	-0.044
Mof_H 	H 	0.1208	0.9168	0.1997	0.047
Mof_O 	O 	0.09675	0.47304	0.86617	-0.4
Mof_O 	O 	0.13132	0.47214	0.83059	-0.364
Mof_C 	C 	0.10643	0.46534	0.84506	0.27
Mof_C 	C 	0.0927	0.44429	0.82661	-0.02
Mof_C 	C 	0.10059	0.43518	0.80193	-0.051
Mof_H 	H 	0.114	0.4451	0.792	0.066
Mof_C 	C 	0.12509	0.35153	0.72253	-0.044
Mof_H 	H 	0.1208	0.3412	0.7385	0.046
Mof_C 	C 	0.13641	0.3407	0.69887	-0.068
Mof_H 	H 	0.1409	0.3217	0.6976	0.048
Mof_C 	C 	0.13709	0.3876	0.6731	-0.068
Mof_H 	H 	0.1416	0.3977	0.6569	0.046
Mof_C 	C 	0.12516	0.3978	0.6981	-0.044
Mof_H 	H 	0.1208	0.4168	0.6997	0.046
Mof_O 	O 	0.40325	0.02696	0.86617	-0.401
Mof_O 	O 	0.36868	0.02786	0.83059	-0.364
Mof_C 	C 	0.39357	0.03466	0.84506	0.27
Mof_C 	C 	0.4073	0.05571	0.82661	-0.021
Mof_C 	C 	0.39941	0.06482	0.80193	-0.051
Mof_H 	H 	0.386	0.0549	0.792	0.065
Mof_C 	C 	0.37491	0.14847	0.72253	-0.044
Mof_H 	H 	0.3792	0.1588	0.7385	0.046
Mof_C 	C 	0.36359	0.1593	0.69887	-0.068
Mof_H 	H 	0.3591	0.1783	0.6976	0.048
Mof_C 	C 	0.36291	0.1124	0.6731	-0.068
Mof_H 	H 	0.3584	0.1023	0.6569	0.046
Mof_C 	C 	0.37484	0.1022	0.6981	-0.044
Mof_H 	H 	0.3792	0.0832	0.6997	0.046
Mof_O 	O 	0.40325	0.52696	0.36617	-0.4
Mof_O 	O 	0.36868	0.52786	0.33059	-0.364
Mof_C 	C 	0.39357	0.53466	0.34506	0.27
Mof_C 	C 	0.4073	0.55571	0.32661	-0.02
Mof_C 	C 	0.39941	0.56482	0.30193	-0.051
Mof_H 	H 	0.386	0.5549	0.292	0.066
Mof_C 	C 	0.37491	0.64847	0.22253	-0.044
Mof_H 	H 	0.3792	0.6588	0.2385	0.046
Mof_C 	C 	0.36359	0.6593	0.19887	-0.068
Mof_H 	H 	0.3591	0.6783	0.1976	0.048
Mof_C 	C 	0.36291	0.6124	0.1731	-0.068
Mof_H 	H 	0.3584	0.6023	0.1569	0.046
Mof_C 	C 	0.37484	0.6022	0.1981	-0.044
Mof_H 	H 	0.3792	0.5832	0.1997	0.047
Mof_O 	O 	0.90325	0.02696	0.36617	-0.401
Mof_O 	O 	0.86868	0.02786	0.33059	-0.364
Mof_C 	C 	0.89357	0.03466	0.34506	0.27
Mof_C 	C 	0.9073	0.05571	0.32661	-0.02
Mof_C 	C 	0.89941	0.06482	0.30193	-0.051
Mof_H 	H 	0.886	0.0549	0.292	0.066
Mof_C 	C 	0.87491	0.14847	0.22253	-0.044
Mof_H 	H 	0.8792	0.1588	0.2385	0.046
Mof_C 	C 	0.86359	0.1593	0.19887	-0.068
Mof_H 	H 	0.8591	0.1783	0.1976	0.048
Mof_C 	C 	0.86291	0.1124	0.1731	-0.068
Mof_H 	H 	0.8584	0.1023	0.1569	0.046
Mof_C 	C 	0.87484	0.1022	0.1981	-0.044
Mof_H 	H 	0.8792	0.0832	0.1997	0.046
Mof_O 	O 	0.90325	0.52696	0.86617	-0.4
Mof_O 	O 	0.86868	0.52786	0.83059	-0.364
Mof_C 	C 	0.89357	0.53466	0.84506	0.27
Mof_C 	C 	0.9073	0.55571	0.82661	-0.02
Mof_C 	C 	0.89941	0.56482	0.80193	-0.051
Mof_H 	H 	0.886	0.5549	0.792	0.066
Mof_C 	C 	0.87491	0.64847	0.72253	-0.044
Mof_H 	H 	0.8792	0.6588	0.7385	0.046
Mof_C 	C 	0.86359	0.6593	0.69887	-0.068
Mof_H 	H 	0.8591	0.6783	0.6976	0.048
Mof_C 	C 	0.86291	0.6124	0.6731	-0.068
Mof_H 	H 	0.8584	0.6023	0.6569	0.046
Mof_C 	C 	0.87484	0.6022	0.6981	-0.044
Mof_H 	H 	0.8792	0.5832	0.6997	0.047
Mof_O 	O 	0.59675	0.02696	0.13383	-0.401
Mof_O 	O 	0.63132	0.02786	0.16941	-0.364
Mof_C 	C 	0.60643	0.03466	0.15494	0.27
Mof_C 	C 	0.5927	0.05571	0.17339	-0.021
Mof_C 	C 	0.60059	0.06482	0.19807	-0.051
Mof_H 	H 	0.614	0.0549	0.208	0.065
Mof_C 	C 	0.62509	0.14847	0.27747	-0.044
Mof_H 	H 	0.6208	0.1588	0.2615	0.046
Mof_C 	C 	0.63641	0.1593	0.30113	-0.068
Mof_H 	H 	0.6409	0.1783	0.3024	0.048
Mof_C 	C 	0.63709	0.1124	0.3269	-0.068
Mof_H 	H 	0.6416	0.1023	0.3431	0.046
Mof_C 	C 	0.62516	0.1022	0.3019	-0.044
Mof_H 	H 	0.6208	0.0832	0.3003	0.046
Mof_O 	O 	0.59675	0.52696	0.63383	-0.4
Mof_O 	O 	0.63132	0.52786	0.66941	-0.364
Mof_C 	C 	0.60643	0.53466	0.65494	0.27
Mof_C 	C 	0.5927	0.55571	0.67339	-0.02
Mof_C 	C 	0.60059	0.56482	0.69807	-0.051
Mof_H 	H 	0.614	0.5549	0.708	0.066
Mof_C 	C 	0.62509	0.64847	0.77747	-0.044
Mof_H 	H 	0.6208	0.6588	0.7615	0.046
Mof_C 	C 	0.63641	0.6593	0.80113	-0.068
Mof_H 	H 	0.6409	0.6783	0.8024	0.048
Mof_C 	C 	0.63709	0.6124	0.8269	-0.068
Mof_H 	H 	0.6416	0.6023	0.8431	0.046
Mof_C 	C 	0.62516	0.6022	0.8019	-0.044
Mof_H 	H 	0.6208	0.5832	0.8003	0.047
Mof_O 	O 	0.09675	0.02696	0.63383	-0.401
Mof_O 	O 	0.13132	0.02786	0.66941	-0.364
Mof_C 	C 	0.10643	0.03466	0.65494	0.27
Mof_C 	C 	0.0927	0.05571	0.67339	-0.021
Mof_C 	C 	0.10059	0.06482	0.69807	-0.051
Mof_H 	H 	0.114	0.0549	0.708	0.065
Mof_C 	C 	0.12509	0.14847	0.77747	-0.044
Mof_H 	H 	0.1208	0.1588	0.7615	0.046
Mof_C 	C 	0.13641	0.1593	0.80113	-0.068
Mof_H 	H 	0.1409	0.1783	0.8024	0.048
Mof_C 	C 	0.13709	0.1124	0.8269	-0.068
Mof_H 	H 	0.1416	0.1023	0.8431	0.046
Mof_C 	C 	0.12516	0.1022	0.8019	-0.044
Mof_H 	H 	0.1208	0.0832	0.8003	0.046
Mof_O 	O 	0.09675	0.52696	0.13383	-0.4
Mof_O 	O 	0.13132	0.52786	0.16941	-0.364
Mof_C 	C 	0.10643	0.53466	0.15494	0.27
Mof_C 	C 	0.0927	0.55571	0.17339	-0.02
Mof_C 	C 	0.10059	0.56482	0.19807	-0.051
Mof_H 	H 	0.114	0.5549	0.208	0.066
Mof_C 	C 	0.12509	0.64847	0.27747	-0.044
Mof_H 	H 	0.1208	0.6588	0.2615	0.046
Mof_C 	C 	0.13641	0.6593	0.30113	-0.068
Mof_H 	H 	0.1409	0.6783	0.3024	0.048
Mof_C 	C 	0.13709	0.6124	0.3269	-0.068
Mof_H 	H 	0.1416	0.6023	0.3431	0.046
Mof_C 	C 	0.12516	0.6022	0.3019	-0.044
Mof_H 	H 	0.1208	0.5832	0.3003	0.047
Mof_O 	O 	0.40325	0.13383	0.02696	-0.401
Mof_O 	O 	0.36868	0.16941	0.02786	-0.364
Mof_C 	C 	0.39357	0.15494	0.03466	0.27
Mof_C 	C 	0.4073	0.17339	0.05571	-0.021
Mof_C 	C 	0.39941	0.19807	0.06482	-0.051
Mof_H 	H 	0.386	0.208	0.0549	0.065
Mof_C 	C 	0.37491	0.27747	0.14847	-0.044
Mof_H 	H 	0.3792	0.2615	0.1588	0.046
Mof_C 	C 	0.36359	0.30113	0.1593	-0.068
Mof_H 	H 	0.3591	0.3024	0.1783	0.048
Mof_C 	C 	0.36291	0.3269	0.1124	-0.068
Mof_H 	H 	0.3584	0.3431	0.1023	0.046
Mof_C 	C 	0.37484	0.3019	0.1022	-0.044
Mof_H 	H 	0.3792	0.3003	0.0832	0.046
Mof_O 	O 	0.40325	0.63383	0.52696	-0.4
Mof_O 	O 	0.36868	0.66941	0.52786	-0.364
Mof_C 	C 	0.39357	0.65494	0.53466	0.27
Mof_C 	C 	0.4073	0.67339	0.55571	-0.02
Mof_C 	C 	0.39941	0.69807	0.56482	-0.051
Mof_H 	H 	0.386	0.708	0.5549	0.066
Mof_C 	C 	0.37491	0.77747	0.64847	-0.044
Mof_H 	H 	0.3792	0.7615	0.6588	0.046
Mof_C 	C 	0.36359	0.80113	0.6593	-0.068
Mof_H 	H 	0.3591	0.8024	0.6783	0.048
Mof_C 	C 	0.36291	0.8269	0.6124	-0.068
Mof_H 	H 	0.3584	0.8431	0.6023	0.046
Mof_C 	C 	0.37484	0.8019	0.6022	-0.044
Mof_H 	H 	0.3792	0.8003	0.5832	0.047
Mof_O 	O 	0.90325	0.13383	0.52696	-0.4
Mof_O 	O 	0.86868	0.16941	0.52786	-0.364
Mof_C 	C 	0.89357	0.15494	0.53466	0.27
Mof_C 	C 	0.9073	0.17339	0.55571	-0.02
Mof_C 	C 	0.89941	0.19807	0.56482	-0.051
Mof_H 	H 	0.886	0.208	0.5549	0.066
Mof_C 	C 	0.87491	0.27747	0.64847	-0.044
Mof_H 	H 	0.8792	0.2615	0.6588	0.046
Mof_C 	C 	0.86359	0.30113	0.6593	-0.068
Mof_H 	H 	0.8591	0.3024	0.6783	0.048
Mof_C 	C 	0.86291	0.3269	0.6124	-0.068
Mof_H 	H 	0.8584	0.3431	0.6023	0.046
Mof_C 	C 	0.87484	0.3019	0.6022	-0.044
Mof_H 	H 	0.8792	0.3003	0.5832	0.047
Mof_O 	O 	0.90325	0.63383	0.02696	-0.401
Mof_O 	O 	0.86868	0.66941	0.02786	-0.364
Mof_C 	C 	0.89357	0.65494	0.03466	0.27
Mof_C 	C 	0.9073	0.67339	0.05571	-0.02
Mof_C 	C 	0.89941	0.69807	0.06482	-0.051
Mof_H 	H 	0.886	0.708	0.0549	0.066
Mof_C 	C 	0.87491	0.77747	0.14847	-0.044
Mof_H 	H 	0.8792	0.7615	0.1588	0.046
Mof_C 	C 	0.86359	0.80113	0.1593	-0.068
Mof_H 	H 	0.8591	0.8024	0.1783	0.048
Mof_C 	C 	0.86291	0.8269	0.1124	-0.068
Mof_H 	H 	0.8584	0.8431	0.1023	0.046
Mof_C 	C 	0.87484	0.8019	0.1022	-0.044
Mof_H 	H 	0.8792	0.8003	0.0832	0.047
Mof_O 	O 	0.59675	0.86617	0.02696	-0.401
Mof_O 	O 	0.63132	0.83059	0.02786	-0.364
Mof_C 	C 	0.60643	0.84506	0.03466	0.27
Mof_C 	C 	0.5927	0.82661	0.05571	-0.021
Mof_C 	C 	0.60059	0.80193	0.06482	-0.051
Mof_H 	H 	0.614	0.792	0.0549	0.065
Mof_C 	C 	0.62509	0.72253	0.14847	-0.044
Mof_H 	H 	0.6208	0.7385	0.1588	0.046
Mof_C 	C 	0.63641	0.69887	0.1593	-0.068
Mof_H 	H 	0.6409	0.6976	0.1783	0.048
Mof_C 	C 	0.63709	0.6731	0.1124	-0.068
Mof_H 	H 	0.6416	0.6569	0.1023	0.046
Mof_C 	C 	0.62516	0.6981	0.1022	-0.044
Mof_H 	H 	0.6208	0.6997	0.0832	0.046
Mof_O 	O 	0.59675	0.36617	0.52696	-0.4
Mof_O 	O 	0.63132	0.33059	0.52786	-0.364
Mof_C 	C 	0.60643	0.34506	0.53466	0.27
Mof_C 	C 	0.5927	0.32661	0.55571	-0.02
Mof_C 	C 	0.60059	0.30193	0.56482	-0.051
Mof_H 	H 	0.614	0.292	0.5549	0.066
Mof_C 	C 	0.62509	0.22253	0.64847	-0.044
Mof_H 	H 	0.6208	0.2385	0.6588	0.046
Mof_C 	C 	0.63641	0.19887	0.6593	-0.068
Mof_H 	H 	0.6409	0.1976	0.6783	0.048
Mof_C 	C 	0.63709	0.1731	0.6124	-0.068
Mof_H 	H 	0.6416	0.1569	0.6023	0.046
Mof_C 	C 	0.62516	0.1981	0.6022	-0.044
Mof_H 	H 	0.6208	0.1997	0.5832	0.047
Mof_O 	O 	0.09675	0.86617	0.52696	-0.4
Mof_O 	O 	0.13132	0.83059	0.52786	-0.364
Mof_C 	C 	0.10643	0.84506	0.53466	0.27
Mof_C 	C 	0.0927	0.82661	0.55571	-0.02
Mof_C 	C 	0.10059	0.80193	0.56482	-0.051
Mof_H 	H 	0.114	0.792	0.5549	0.066
Mof_C 	C 	0.12509	0.72253	0.64847	-0.044
Mof_H 	H 	0.1208	0.7385	0.6588	0.046
Mof_C 	C 	0.13641	0.69887	0.6593	-0.068
Mof_H 	H 	0.1409	0.6976	0.6783	0.048
Mof_C 	C 	0.13709	0.6731	0.6124	-0.068
Mof_H 	H 	0.1416	0.6569	0.6023	0.046
Mof_C 	C 	0.12516	0.6981	0.6022	-0.044
Mof_H 	H 	0.1208	0.6997	0.5832	0.046
Mof_O 	O 	0.09675	0.36617	0.02696	-0.401
Mof_O 	O 	0.13132	0.33059	0.02786	-0.364
Mof_C 	C 	0.10643	0.34506	0.03466	0.27
Mof_C 	C 	0.0927	0.32661	0.05571	-0.021
Mof_C 	C 	0.10059	0.30193	0.06482	-0.051
Mof_H 	H 	0.114	0.292	0.0549	0.065
Mof_C 	C 	0.12509	0.22253	0.14847	-0.044
Mof_H 	H 	0.1208	0.2385	0.1588	0.046
Mof_C 	C 	0.13641	0.19887	0.1593	-0.068
Mof_H 	H 	0.1409	0.1976	0.1783	0.048
Mof_C 	C 	0.13709	0.1731	0.1124	-0.068
Mof_H 	H 	0.1416	0.1569	0.1023	0.046
Mof_C 	C 	0.12516	0.1981	0.1022	-0.044
Mof_H 	H 	0.1208	0.1997	0.0832	0.046
Mof_O 	O 	0.40325	0.86617	0.97304	-0.399
Mof_O 	O 	0.36868	0.83059	0.97214	-0.363
Mof_C 	C 	0.39357	0.84506	0.96534	0.27
Mof_C 	C 	0.4073	0.82661	0.94429	-0.02
Mof_C 	C 	0.39941	0.80193	0.93518	-0.051
Mof_H 	H 	0.386	0.792	0.9451	0.066
Mof_C 	C 	0.37491	0.72253	0.85153	-0.044
Mof_H 	H 	0.3792	0.7385	0.8412	0.046
Mof_C 	C 	0.36359	0.69887	0.8407	-0.068
Mof_H 	H 	0.3591	0.6976	0.8217	0.048
Mof_C 	C 	0.36291	0.6731	0.8876	-0.068
Mof_H 	H 	0.3584	0.6569	0.8977	0.046
Mof_C 	C 	0.37484	0.6981	0.8978	-0.044
Mof_H 	H 	0.3792	0.6997	0.9168	0.047
Mof_O 	O 	0.40325	0.36617	0.47304	-0.4
Mof_O 	O 	0.36868	0.33059	0.47214	-0.364
Mof_C 	C 	0.39357	0.34506	0.46534	0.27
Mof_C 	C 	0.4073	0.32661	0.44429	-0.02
Mof_C 	C 	0.39941	0.30193	0.43518	-0.051
Mof_H 	H 	0.386	0.292	0.4451	0.066
Mof_C 	C 	0.37491	0.22253	0.35153	-0.044
Mof_H 	H 	0.3792	0.2385	0.3412	0.046
Mof_C 	C 	0.36359	0.19887	0.3407	-0.068
Mof_H 	H 	0.3591	0.1976	0.3217	0.048
Mof_C 	C 	0.36291	0.1731	0.3876	-0.068
Mof_H 	H 	0.3584	0.1569	0.3977	0.046
Mof_C 	C 	0.37484	0.1981	0.3978	-0.044
Mof_H 	H 	0.3792	0.1997	0.4168	0.047
Mof_O 	O 	0.90325	0.86617	0.47304	-0.4
Mof_O 	O 	0.86868	0.83059	0.47214	-0.364
Mof_C 	C 	0.89357	0.84506	0.46534	0.27
Mof_C 	C 	0.9073	0.82661	0.44429	-0.02
Mof_C 	C 	0.89941	0.80193	0.43518	-0.051
Mof_H 	H 	0.886	0.792	0.4451	0.066
Mof_C 	C 	0.87491	0.72253	0.35153	-0.044
Mof_H 	H 	0.8792	0.7385	0.3412	0.046
Mof_C 	C 	0.86359	0.69887	0.3407	-0.068
Mof_H 	H 	0.8591	0.6976	0.3217	0.048
Mof_C 	C 	0.86291	0.6731	0.3876	-0.068
Mof_H 	H 	0.8584	0.6569	0.3977	0.046
Mof_C 	C 	0.87484	0.6981	0.3978	-0.044
Mof_H 	H 	0.8792	0.6997	0.4168	0.047
Mof_O 	O 	0.90325	0.36617	0.97304	-0.399
Mof_O 	O 	0.86868	0.33059	0.97214	-0.363
Mof_C 	C 	0.89357	0.34506	0.96534	0.27
Mof_C 	C 	0.9073	0.32661	0.94429	-0.02
Mof_C 	C 	0.89941	0.30193	0.93518	-0.051
Mof_H 	H 	0.886	0.292	0.9451	0.066
Mof_C 	C 	0.87491	0.22253	0.85153	-0.044
Mof_H 	H 	0.8792	0.2385	0.8412	0.046
Mof_C 	C 	0.86359	0.19887	0.8407	-0.068
Mof_H 	H 	0.8591	0.1976	0.8217	0.048
Mof_C 	C 	0.86291	0.1731	0.8876	-0.068
Mof_H 	H 	0.8584	0.1569	0.8977	0.046
Mof_C 	C 	0.87484	0.1981	0.8978	-0.044
Mof_H 	H 	0.8792	0.1997	0.9168	0.047
Mof_O 	O 	0.59675	0.13383	0.97304	-0.4
Mof_O 	O 	0.63132	0.16941	0.97214	-0.363
Mof_C 	C 	0.60643	0.15494	0.96534	0.27
Mof_C 	C 	0.5927	0.17339	0.94429	-0.02
Mof_C 	C 	0.60059	0.19807	0.93518	-0.051
Mof_H 	H 	0.614	0.208	0.9451	0.066
Mof_C 	C 	0.62509	0.27747	0.85153	-0.044
Mof_H 	H 	0.6208	0.2615	0.8412	0.046
Mof_C 	C 	0.63641	0.30113	0.8407	-0.068
Mof_H 	H 	0.6409	0.3024	0.8217	0.048
Mof_C 	C 	0.63709	0.3269	0.8876	-0.068
Mof_H 	H 	0.6416	0.3431	0.8977	0.046
Mof_C 	C 	0.62516	0.3019	0.8978	-0.044
Mof_H 	H 	0.6208	0.3003	0.9168	0.047
Mof_O 	O 	0.59675	0.63383	0.47304	-0.4
Mof_O 	O 	0.63132	0.66941	0.47214	-0.364
Mof_C 	C 	0.60643	0.65494	0.46534	0.27
Mof_C 	C 	0.5927	0.67339	0.44429	-0.02
Mof_C 	C 	0.60059	0.69807	0.43518	-0.051
Mof_H 	H 	0.614	0.708	0.4451	0.066
Mof_C 	C 	0.62509	0.77747	0.35153	-0.044
Mof_H 	H 	0.6208	0.7615	0.3412	0.046
Mof_C 	C 	0.63641	0.80113	0.3407	-0.068
Mof_H 	H 	0.6409	0.8024	0.3217	0.048
Mof_C 	C 	0.63709	0.8269	0.3876	-0.068
Mof_H 	H 	0.6416	0.8431	0.3977	0.046
Mof_C 	C 	0.62516	0.8019	0.3978	-0.044
Mof_H 	H 	0.6208	0.8003	0.4168	0.047
Mof_O 	O 	0.09675	0.13383	0.47304	-0.4
Mof_O 	O 	0.13132	0.16941	0.47214	-0.364
Mof_C 	C 	0.10643	0.15494	0.46534	0.27
Mof_C 	C 	0.0927	0.17339	0.44429	-0.02
Mof_C 	C 	0.10059	0.19807	0.43518	-0.051
Mof_H 	H 	0.114	0.208	0.4451	0.066
Mof_C 	C 	0.12509	0.27747	0.35153	-0.044
Mof_H 	H 	0.1208	0.2615	0.3412	0.046
Mof_C 	C 	0.13641	0.30113	0.3407	-0.068
Mof_H 	H 	0.1409	0.3024	0.3217	0.048
Mof_C 	C 	0.13709	0.3269	0.3876	-0.068
Mof_H 	H 	0.1416	0.3431	0.3977	0.046
Mof_C 	C 	0.12516	0.3019	0.3978	-0.044
Mof_H 	H 	0.1208	0.3003	0.4168	0.047
Mof_O 	O 	0.09675	0.63383	0.97304	-0.4
Mof_O 	O 	0.13132	0.66941	0.97214	-0.363
Mof_C 	C 	0.10643	0.65494	0.96534	0.27
Mof_C 	C 	0.0927	0.67339	0.94429	-0.02
Mof_C 	C 	0.10059	0.69807	0.93518	-0.051
Mof_H 	H 	0.114	0.708	0.9451	0.066
Mof_C 	C 	0.12509	0.77747	0.85153	-0.044
Mof_H 	H 	0.1208	0.7615	0.8412	0.046
Mof_C 	C 	0.13641	0.80113	0.8407	-0.068
Mof_H 	H 	0.1409	0.8024	0.8217	0.048
Mof_C 	C 	0.13709	0.8269	0.8876	-0.068
Mof_H 	H 	0.1416	0.8431	0.8977	0.046
Mof_C 	C 	0.12516	0.8019	0.8978	-0.044
Mof_H 	H 	0.1208	0.8003	0.9168	0.047
Mof_O 	O 	0.13383	0.97304	0.59675	-0.4
Mof_O 	O 	0.16941	0.97214	0.63132	-0.363
Mof_C 	C 	0.15494	0.96534	0.60643	0.27
Mof_C 	C 	0.17339	0.94429	0.5927	-0.02
Mof_C 	C 	0.19807	0.93518	0.60059	-0.051
Mof_H 	H 	0.208	0.9451	0.614	0.066
Mof_C 	C 	0.27747	0.85153	0.62509	-0.044
Mof_H 	H 	0.2615	0.8412	0.6208	0.046
Mof_C 	C 	0.30113	0.8407	0.63641	-0.068
Mof_H 	H 	0.3024	0.8217	0.6409	0.048
Mof_C 	C 	0.3269	0.8876	0.63709	-0.068
Mof_H 	H 	0.3431	0.8977	0.6416	0.046
Mof_C 	C 	0.3019	0.8978	0.62516	-0.044
Mof_H 	H 	0.3003	0.9168	0.6208	0.047
Mof_O 	O 	0.13383	0.47304	0.09675	-0.4
Mof_O 	O 	0.16941	0.47214	0.13132	-0.364
Mof_C 	C 	0.15494	0.46534	0.10643	0.27
Mof_C 	C 	0.17339	0.44429	0.0927	-0.02
Mof_C 	C 	0.19807	0.43518	0.10059	-0.051
Mof_H 	H 	0.208	0.4451	0.114	0.066
Mof_C 	C 	0.27747	0.35153	0.12509	-0.044
Mof_H 	H 	0.2615	0.3412	0.1208	0.046
Mof_C 	C 	0.30113	0.3407	0.13641	-0.068
Mof_H 	H 	0.3024	0.3217	0.1409	0.048
Mof_C 	C 	0.3269	0.3876	0.13709	-0.068
Mof_H 	H 	0.3431	0.3977	0.1416	0.046
Mof_C 	C 	0.3019	0.3978	0.12516	-0.044
Mof_H 	H 	0.3003	0.4168	0.1208	0.047
Mof_O 	O 	0.63383	0.97304	0.09675	-0.4
Mof_O 	O 	0.66941	0.97214	0.13132	-0.363
Mof_C 	C 	0.65494	0.96534	0.10643	0.27
Mof_C 	C 	0.67339	0.94429	0.0927	-0.02
Mof_C 	C 	0.69807	0.93518	0.10059	-0.051
Mof_H 	H 	0.708	0.9451	0.114	0.066
Mof_C 	C 	0.77747	0.85153	0.12509	-0.044
Mof_H 	H 	0.7615	0.8412	0.1208	0.046
Mof_C 	C 	0.80113	0.8407	0.13641	-0.068
Mof_H 	H 	0.8024	0.8217	0.1409	0.048
Mof_C 	C 	0.8269	0.8876	0.13709	-0.068
Mof_H 	H 	0.8431	0.8977	0.1416	0.046
Mof_C 	C 	0.8019	0.8978	0.12516	-0.044
Mof_H 	H 	0.8003	0.9168	0.1208	0.047
Mof_O 	O 	0.63383	0.47304	0.59675	-0.4
Mof_O 	O 	0.66941	0.47214	0.63132	-0.364
Mof_C 	C 	0.65494	0.46534	0.60643	0.27
Mof_C 	C 	0.67339	0.44429	0.5927	-0.02
Mof_C 	C 	0.69807	0.43518	0.60059	-0.051
Mof_H 	H 	0.708	0.4451	0.614	0.066
Mof_C 	C 	0.77747	0.35153	0.62509	-0.044
Mof_H 	H 	0.7615	0.3412	0.6208	0.046
Mof_C 	C 	0.80113	0.3407	0.63641	-0.068
Mof_H 	H 	0.8024	0.3217	0.6409	0.048
Mof_C 	C 	0.8269	0.3876	0.63709	-0.068
Mof_H 	H 	0.8431	0.3977	0.6416	0.046
Mof_C 	C 	0.8019	0.3978	0.62516	-0.044
Mof_H 	H 	0.8003	0.4168	0.6208	0.047
Mof_O 	O 	0.86617	0.97304	0.40325	-0.399
Mof_O 	O 	0.83059	0.97214	0.36868	-0.363
Mof_C 	C 	0.84506	0.96534	0.39357	0.27
Mof_C 	C 	0.82661	0.94429	0.4073	-0.02
Mof_C 	C 	0.80193	0.93518	0.39941	-0.051
Mof_H 	H 	0.792	0.9451	0.386	0.066
Mof_C 	C 	0.72253	0.85153	0.37491	-0.044
Mof_H 	H 	0.7385	0.8412	0.3792	0.046
Mof_C 	C 	0.69887	0.8407	0.36359	-0.068
Mof_H 	H 	0.6976	0.8217	0.3591	0.048
Mof_C 	C 	0.6731	0.8876	0.36291	-0.068
Mof_H 	H 	0.6569	0.8977	0.3584	0.046
Mof_C 	C 	0.6981	0.8978	0.37484	-0.044
Mof_H 	H 	0.6997	0.9168	0.3792	0.047
Mof_O 	O 	0.86617	0.47304	0.90325	-0.4
Mof_O 	O 	0.83059	0.47214	0.86868	-0.364
Mof_C 	C 	0.84506	0.46534	0.89357	0.27
Mof_C 	C 	0.82661	0.44429	0.9073	-0.02
Mof_C 	C 	0.80193	0.43518	0.89941	-0.051
Mof_H 	H 	0.792	0.4451	0.886	0.066
Mof_C 	C 	0.72253	0.35153	0.87491	-0.044
Mof_H 	H 	0.7385	0.3412	0.8792	0.046
Mof_C 	C 	0.69887	0.3407	0.86359	-0.068
Mof_H 	H 	0.6976	0.3217	0.8591	0.048
Mof_C 	C 	0.6731	0.3876	0.86291	-0.068
Mof_H 	H 	0.6569	0.3977	0.8584	0.046
Mof_C 	C 	0.6981	0.3978	0.87484	-0.044
Mof_H 	H 	0.6997	0.4168	0.8792	0.047
Mof_O 	O 	0.36617	0.97304	0.90325	-0.399
Mof_O 	O 	0.33059	0.97214	0.86868	-0.363
Mof_C 	C 	0.34506	0.96534	0.89357	0.27
Mof_C 	C 	0.32661	0.94429	0.9073	-0.02
Mof_C 	C 	0.30193	0.93518	0.89941	-0.051
Mof_H 	H 	0.292	0.9451	0.886	0.066
Mof_C 	C 	0.22253	0.85153	0.87491	-0.044
Mof_H 	H 	0.2385	0.8412	0.8792	0.046
Mof_C 	C 	0.19887	0.8407	0.86359	-0.068
Mof_H 	H 	0.1976	0.8217	0.8591	0.048
Mof_C 	C 	0.1731	0.8876	0.86291	-0.068
Mof_H 	H 	0.1569	0.8977	0.8584	0.046
Mof_C 	C 	0.1981	0.8978	0.87484	-0.044
Mof_H 	H 	0.1997	0.9168	0.8792	0.047
Mof_O 	O 	0.36617	0.47304	0.40325	-0.4
Mof_O 	O 	0.33059	0.47214	0.36868	-0.364
Mof_C 	C 	0.34506	0.46534	0.39357	0.27
Mof_C 	C 	0.32661	0.44429	0.4073	-0.02
Mof_C 	C 	0.30193	0.43518	0.39941	-0.051
Mof_H 	H 	0.292	0.4451	0.386	0.066
Mof_C 	C 	0.22253	0.35153	0.37491	-0.044
Mof_H 	H 	0.2385	0.3412	0.3792	0.046
Mof_C 	C 	0.19887	0.3407	0.36359	-0.068
Mof_H 	H 	0.1976	0.3217	0.3591	0.048
Mof_C 	C 	0.1731	0.3876	0.36291	-0.068
Mof_H 	H 	0.1569	0.3977	0.3584	0.046
Mof_C 	C 	0.1981	0.3978	0.37484	-0.044
Mof_H 	H 	0.1997	0.4168	0.3792	0.047
Mof_O 	O 	0.86617	0.02696	0.59675	-0.401
Mof_O 	O 	0.83059	0.02786	0.63132	-0.364
Mof_C 	C 	0.84506	0.03466	0.60643	0.27
Mof_C 	C 	0.82661	0.05571	0.5927	-0.021
Mof_C 	C 	0.80193	0.06482	0.60059	-0.051
Mof_H 	H 	0.792	0.0549	0.614	0.065
Mof_C 	C 	0.72253	0.14847	0.62509	-0.044
Mof_H 	H 	0.7385	0.1588	0.6208	0.046
Mof_C 	C 	0.69887	0.1593	0.63641	-0.068
Mof_H 	H 	0.6976	0.1783	0.6409	0.048
Mof_C 	C 	0.6731	0.1124	0.63709	-0.068
Mof_H 	H 	0.6569	0.1023	0.6416	0.046
Mof_C 	C 	0.6981	0.1022	0.62516	-0.044
Mof_H 	H 	0.6997	0.0832	0.6208	0.046
Mof_O 	O 	0.86617	0.52696	0.09675	-0.4
Mof_O 	O 	0.83059	0.52786	0.13132	-0.364
Mof_C 	C 	0.84506	0.53466	0.10643	0.27
Mof_C 	C 	0.82661	0.55571	0.0927	-0.02
Mof_C 	C 	0.80193	0.56482	0.10059	-0.051
Mof_H 	H 	0.792	0.5549	0.114	0.066
Mof_C 	C 	0.72253	0.64847	0.12509	-0.044
Mof_H 	H 	0.7385	0.6588	0.1208	0.046
Mof_C 	C 	0.69887	0.6593	0.13641	-0.068
Mof_H 	H 	0.6976	0.6783	0.1409	0.048
Mof_C 	C 	0.6731	0.6124	0.13709	-0.068
Mof_H 	H 	0.6569	0.6023	0.1416	0.046
Mof_C 	C 	0.6981	0.6022	0.12516	-0.044
Mof_H 	H 	0.6997	0.5832	0.1208	0.046
Mof_O 	O 	0.36617	0.02696	0.09675	-0.401
Mof_O 	O 	0.33059	0.02786	0.13132	-0.364
Mof_C 	C 	0.34506	0.03466	0.10643	0.27
Mof_C 	C 	0.32661	0.05571	0.0927	-0.021
Mof_C 	C 	0.30193	0.06482	0.10059	-0.051
Mof_H 	H 	0.292	0.0549	0.114	0.065
Mof_C 	C 	0.22253	0.14847	0.12509	-0.044
Mof_H 	H 	0.2385	0.1588	0.1208	0.046
Mof_C 	C 	0.19887	0.1593	0.13641	-0.068
Mof_H 	H 	0.1976	0.1783	0.1409	0.048
Mof_C 	C 	0.1731	0.1124	0.13709	-0.068
Mof_H 	H 	0.1569	0.1023	0.1416	0.046
Mof_C 	C 	0.1981	0.1022	0.12516	-0.044
Mof_H 	H 	0.1997	0.0832	0.1208	0.046
Mof_O 	O 	0.36617	0.52696	0.59675	-0.4
Mof_O 	O 	0.33059	0.52786	0.63132	-0.364
Mof_C 	C 	0.34506	0.53466	0.60643	0.27
Mof_C 	C 	0.32661	0.55571	0.5927	-0.02
Mof_C 	C 	0.30193	0.56482	0.60059	-0.051
Mof_H 	H 	0.292	0.5549	0.614	0.066
Mof_C 	C 	0.22253	0.64847	0.62509	-0.044
Mof_H 	H 	0.2385	0.6588	0.6208	0.046
Mof_C 	C 	0.19887	0.6593	0.63641	-0.068
Mof_H 	H 	0.1976	0.6783	0.6409	0.048
Mof_C 	C 	0.1731	0.6124	0.63709	-0.068
Mof_H 	H 	0.1569	0.6023	0.6416	0.046
Mof_C 	C 	0.1981	0.6022	0.62516	-0.044
Mof_H 	H 	0.1997	0.5832	0.6208	0.047
Mof_O 	O 	0.13383	0.02696	0.40325	-0.401
Mof_O 	O 	0.16941	0.02786	0.36868	-0.364
Mof_C 	C 	0.15494	0.03466	0.39357	0.27
Mof_C 	C 	0.17339	0.05571	0.4073	-0.021
Mof_C 	C 	0.19807	0.06482	0.39941	-0.051
Mof_H 	H 	0.208	0.0549	0.386	0.065
Mof_C 	C 	0.27747	0.14847	0.37491	-0.044
Mof_H 	H 	0.2615	0.1588	0.3792	0.046
Mof_C 	C 	0.30113	0.1593	0.36359	-0.068
Mof_H 	H 	0.3024	0.1783	0.3591	0.048
Mof_C 	C 	0.3269	0.1124	0.36291	-0.068
Mof_H 	H 	0.3431	0.1023	0.3584	0.046
Mof_C 	C 	0.3019	0.1022	0.37484	-0.044
Mof_H 	H 	0.3003	0.0832	0.3792	0.046
Mof_O 	O 	0.13383	0.52696	0.90325	-0.4
Mof_O 	O 	0.16941	0.52786	0.86868	-0.364
Mof_C 	C 	0.15494	0.53466	0.89357	0.27
Mof_C 	C 	0.17339	0.55571	0.9073	-0.02
Mof_C 	C 	0.19807	0.56482	0.89941	-0.051
Mof_H 	H 	0.208	0.5549	0.886	0.066
Mof_C 	C 	0.27747	0.64847	0.87491	-0.044
Mof_H 	H 	0.2615	0.6588	0.8792	0.046
Mof_C 	C 	0.30113	0.6593	0.86359	-0.068
Mof_H 	H 	0.3024	0.6783	0.8591	0.048
Mof_C 	C 	0.3269	0.6124	0.86291	-0.068
Mof_H 	H 	0.3431	0.6023	0.8584	0.046
Mof_C 	C 	0.3019	0.6022	0.87484	-0.044
Mof_H 	H 	0.3003	0.5832	0.8792	0.047
Mof_O 	O 	0.63383	0.02696	0.90325	-0.401
Mof_O 	O 	0.66941	0.02786	0.86868	-0.364
Mof_C 	C 	0.65494	0.03466	0.89357	0.27
Mof_C 	C 	0.67339	0.05571	0.9073	-0.02
Mof_C 	C 	0.69807	0.06482	0.89941	-0.051
Mof_H 	H 	0.708	0.0549	0.886	0.066
Mof_C 	C 	0.77747	0.14847	0.87491	-0.044
Mof_H 	H 	0.7615	0.1588	0.8792	0.046
Mof_C 	C 	0.80113	0.1593	0.86359	-0.068
Mof_H 	H 	0.8024	0.1783	0.8591	0.048
Mof_C 	C 	0.8269	0.1124	0.86291	-0.068
Mof_H 	H 	0.8431	0.1023	0.8584	0.046
Mof_C 	C 	0.8019	0.1022	0.87484	-0.044
Mof_H 	H 	0.8003	0.0832	0.8792	0.047
Mof_O 	O 	0.63383	0.52696	0.40325	-0.4
Mof_O 	O 	0.66941	0.52786	0.36868	-0.364
Mof_C 	C 	0.65494	0.53466	0.39357	0.27
Mof_C 	C 	0.67339	0.55571	0.4073	-0.02
Mof_C 	C 	0.69807	0.56482	0.39941	-0.051
Mof_H 	H 	0.708	0.5549	0.386	0.066
Mof_C 	C 	0.77747	0.64847	0.37491	-0.044
Mof_H 	H 	0.7615	0.6588	0.3792	0.046
Mof_C 	C 	0.80113	0.6593	0.36359	-0.068
Mof_H 	H 	0.8024	0.6783	0.3591	0.048
Mof_C 	C 	0.8269	0.6124	0.36291	-0.068
Mof_H 	H 	0.8431	0.6023	0.3584	0.046
Mof_C 	C 	0.8019	0.6022	0.37484	-0.044
Mof_H 	H 	0.8003	0.5832	0.3792	0.047
Mof_O 	O 	0.97304	0.40325	0.86617	-0.399
Mof_O 	O 	0.97214	0.36868	0.83059	-0.363
Mof_C 	C 	0.96534	0.39357	0.84506	0.27
Mof_C 	C 	0.94429	0.4073	0.82661	-0.02
Mof_C 	C 	0.93518	0.39941	0.80193	-0.051
Mof_H 	H 	0.9451	0.386	0.792	0.066
Mof_C 	C 	0.85153	0.37491	0.72253	-0.044
Mof_H 	H 	0.8412	0.3792	0.7385	0.046
Mof_C 	C 	0.8407	0.36359	0.69887	-0.068
Mof_H 	H 	0.8217	0.3591	0.6976	0.048
Mof_C 	C 	0.8876	0.36291	0.6731	-0.068
Mof_H 	H 	0.8977	0.3584	0.6569	0.046
Mof_C 	C 	0.8978	0.37484	0.6981	-0.044
Mof_H 	H 	0.9168	0.3792	0.6997	0.047
Mof_O 	O 	0.97304	0.90325	0.36617	-0.399
Mof_O 	O 	0.97214	0.86868	0.33059	-0.363
Mof_C 	C 	0.96534	0.89357	0.34506	0.27
Mof_C 	C 	0.94429	0.9073	0.32661	-0.02
Mof_C 	C 	0.93518	0.89941	0.30193	-0.051
Mof_H 	H 	0.9451	0.886	0.292	0.066
Mof_C 	C 	0.85153	0.87491	0.22253	-0.044
Mof_H 	H 	0.8412	0.8792	0.2385	0.046
Mof_C 	C 	0.8407	0.86359	0.19887	-0.068
Mof_H 	H 	0.8217	0.8591	0.1976	0.048
Mof_C 	C 	0.8876	0.86291	0.1731	-0.068
Mof_H 	H 	0.8977	0.8584	0.1569	0.046
Mof_C 	C 	0.8978	0.87484	0.1981	-0.044
Mof_H 	H 	0.9168	0.8792	0.1997	0.047
Mof_O 	O 	0.47304	0.40325	0.36617	-0.4
Mof_O 	O 	0.47214	0.36868	0.33059	-0.364
Mof_C 	C 	0.46534	0.39357	0.34506	0.27
Mof_C 	C 	0.44429	0.4073	0.32661	-0.02
Mof_C 	C 	0.43518	0.39941	0.30193	-0.051
Mof_H 	H 	0.4451	0.386	0.292	0.066
Mof_C 	C 	0.35153	0.37491	0.22253	-0.044
Mof_H 	H 	0.3412	0.3792	0.2385	0.046
Mof_C 	C 	0.3407	0.36359	0.19887	-0.068
Mof_H 	H 	0.3217	0.3591	0.1976	0.048
Mof_C 	C 	0.3876	0.36291	0.1731	-0.068
Mof_H 	H 	0.3977	0.3584	0.1569	0.046
Mof_C 	C 	0.3978	0.37484	0.1981	-0.044
Mof_H 	H 	0.4168	0.3792	0.1997	0.047
Mof_O 	O 	0.47304	0.90325	0.86617	-0.4
Mof_O 	O 	0.47214	0.86868	0.83059	-0.364
Mof_C 	C 	0.46534	0.89357	0.84506	0.27
Mof_C 	C 	0.44429	0.9073	0.82661	-0.02
Mof_C 	C 	0.43518	0.89941	0.80193	-0.051
Mof_H 	H 	0.4451	0.886	0.792	0.066
Mof_C 	C 	0.35153	0.87491	0.72253	-0.044
Mof_H 	H 	0.3412	0.8792	0.7385	0.046
Mof_C 	C 	0.3407	0.86359	0.69887	-0.068
Mof_H 	H 	0.3217	0.8591	0.6976	0.048
Mof_C 	C 	0.3876	0.86291	0.6731	-0.068
Mof_H 	H 	0.3977	0.8584	0.6569	0.046
Mof_C 	C 	0.3978	0.87484	0.6981	-0.044
Mof_H 	H 	0.4168	0.8792	0.6997	0.047
Mof_O 	O 	0.97304	0.59675	0.13383	-0.4
Mof_O 	O 	0.97214	0.63132	0.16941	-0.363
Mof_C 	C 	0.96534	0.60643	0.15494	0.27
Mof_C 	C 	0.94429	0.5927	0.17339	-0.02
Mof_C 	C 	0.93518	0.60059	0.19807	-0.051
Mof_H 	H 	0.9451	0.614	0.208	0.066
Mof_C 	C 	0.85153	0.62509	0.27747	-0.044
Mof_H 	H 	0.8412	0.6208	0.2615	0.046
Mof_C 	C 	0.8407	0.63641	0.30113	-0.068
Mof_H 	H 	0.8217	0.6409	0.3024	0.048
Mof_C 	C 	0.8876	0.63709	0.3269	-0.068
Mof_H 	H 	0.8977	0.6416	0.3431	0.046
Mof_C 	C 	0.8978	0.62516	0.3019	-0.044
Mof_H 	H 	0.9168	0.6208	0.3003	0.047
Mof_O 	O 	0.97304	0.09675	0.63383	-0.4
Mof_O 	O 	0.97214	0.13132	0.66941	-0.363
Mof_C 	C 	0.96534	0.10643	0.65494	0.27
Mof_C 	C 	0.94429	0.0927	0.67339	-0.02
Mof_C 	C 	0.93518	0.10059	0.69807	-0.051
Mof_H 	H 	0.9451	0.114	0.708	0.066
Mof_C 	C 	0.85153	0.12509	0.77747	-0.044
Mof_H 	H 	0.8412	0.1208	0.7615	0.046
Mof_C 	C 	0.8407	0.13641	0.80113	-0.068
Mof_H 	H 	0.8217	0.1409	0.8024	0.048
Mof_C 	C 	0.8876	0.13709	0.8269	-0.068
Mof_H 	H 	0.8977	0.1416	0.8431	0.046
Mof_C 	C 	0.8978	0.12516	0.8019	-0.044
Mof_H 	H 	0.9168	0.1208	0.8003	0.047
Mof_O 	O 	0.47304	0.59675	0.63383	-0.4
Mof_O 	O 	0.47214	0.63132	0.66941	-0.364
Mof_C 	C 	0.46534	0.60643	0.65494	0.27
Mof_C 	C 	0.44429	0.5927	0.67339	-0.02
Mof_C 	C 	0.43518	0.60059	0.69807	-0.051
Mof_H 	H 	0.4451	0.614	0.708	0.066
Mof_C 	C 	0.35153	0.62509	0.77747	-0.044
Mof_H 	H 	0.3412	0.6208	0.7615	0.046
Mof_C 	C 	0.3407	0.63641	0.80113	-0.068
Mof_H 	H 	0.3217	0.6409	0.8024	0.048
Mof_C 	C 	0.3876	0.63709	0.8269	-0.068
Mof_H 	H 	0.3977	0.6416	0.8431	0.046
Mof_C 	C 	0.3978	0.62516	0.8019	-0.044
Mof_H 	H 	0.4168	0.6208	0.8003	0.047
Mof_O 	O 	0.47304	0.09675	0.13383	-0.4
Mof_O 	O 	0.47214	0.13132	0.16941	-0.364
Mof_C 	C 	0.46534	0.10643	0.15494	0.27
Mof_C 	C 	0.44429	0.0927	0.17339	-0.02
Mof_C 	C 	0.43518	0.10059	0.19807	-0.051
Mof_H 	H 	0.4451	0.114	0.208	0.066
Mof_C 	C 	0.35153	0.12509	0.27747	-0.044
Mof_H 	H 	0.3412	0.1208	0.2615	0.046
Mof_C 	C 	0.3407	0.13641	0.30113	-0.068
Mof_H 	H 	0.3217	0.1409	0.3024	0.048
Mof_C 	C 	0.3876	0.13709	0.3269	-0.068
Mof_H 	H 	0.3977	0.1416	0.3431	0.046
Mof_C 	C 	0.3978	0.12516	0.3019	-0.044
Mof_H 	H 	0.4168	0.1208	0.3003	0.047
Mof_O 	O 	0.02696	0.40325	0.13383	-0.401
Mof_O 	O 	0.02786	0.36868	0.16941	-0.364
Mof_C 	C 	0.03466	0.39357	0.15494	0.27
Mof_C 	C 	0.05571	0.4073	0.17339	-0.021
Mof_C 	C 	0.06482	0.39941	0.19807	-0.051
Mof_H 	H 	0.0549	0.386	0.208	0.065
Mof_C 	C 	0.14847	0.37491	0.27747	-0.044
Mof_H 	H 	0.1588	0.3792	0.2615	0.046
Mof_C 	C 	0.1593	0.36359	0.30113	-0.068
Mof_H 	H 	0.1783	0.3591	0.3024	0.048
Mof_C 	C 	0.1124	0.36291	0.3269	-0.068
Mof_H 	H 	0.1023	0.3584	0.3431	0.046
Mof_C 	C 	0.1022	0.37484	0.3019	-0.044
Mof_H 	H 	0.0832	0.3792	0.3003	0.046
Mof_O 	O 	0.02696	0.90325	0.63383	-0.401
Mof_O 	O 	0.02786	0.86868	0.66941	-0.364
Mof_C 	C 	0.03466	0.89357	0.65494	0.27
Mof_C 	C 	0.05571	0.9073	0.67339	-0.02
Mof_C 	C 	0.06482	0.89941	0.69807	-0.051
Mof_H 	H 	0.0549	0.886	0.708	0.066
Mof_C 	C 	0.14847	0.87491	0.77747	-0.044
Mof_H 	H 	0.1588	0.8792	0.7615	0.046
Mof_C 	C 	0.1593	0.86359	0.80113	-0.068
Mof_H 	H 	0.1783	0.8591	0.8024	0.048
Mof_C 	C 	0.1124	0.86291	0.8269	-0.068
Mof_H 	H 	0.1023	0.8584	0.8431	0.046
Mof_C 	C 	0.1022	0.87484	0.8019	-0.044
Mof_H 	H 	0.0832	0.8792	0.8003	0.047
Mof_O 	O 	0.52696	0.40325	0.63383	-0.4
Mof_O 	O 	0.52786	0.36868	0.66941	-0.364
Mof_C 	C 	0.53466	0.39357	0.65494	0.27
Mof_C 	C 	0.55571	0.4073	0.67339	-0.02
Mof_C 	C 	0.56482	0.39941	0.69807	-0.051
Mof_H 	H 	0.5549	0.386	0.708	0.066
Mof_C 	C 	0.64847	0.37491	0.77747	-0.044
Mof_H 	H 	0.6588	0.3792	0.7615	0.046
Mof_C 	C 	0.6593	0.36359	0.80113	-0.068
Mof_H 	H 	0.6783	0.3591	0.8024	0.048
Mof_C 	C 	0.6124	0.36291	0.8269	-0.068
Mof_H 	H 	0.6023	0.3584	0.8431	0.046
Mof_C 	C 	0.6022	0.37484	0.8019	-0.044
Mof_H 	H 	0.5832	0.3792	0.8003	0.047
Mof_O 	O 	0.52696	0.90325	0.13383	-0.4
Mof_O 	O 	0.52786	0.86868	0.16941	-0.364
Mof_C 	C 	0.53466	0.89357	0.15494	0.27
Mof_C 	C 	0.55571	0.9073	0.17339	-0.02
Mof_C 	C 	0.56482	0.89941	0.19807	-0.051
Mof_H 	H 	0.5549	0.886	0.208	0.066
Mof_C 	C 	0.64847	0.87491	0.27747	-0.044
Mof_H 	H 	0.6588	0.8792	0.2615	0.046
Mof_C 	C 	0.6593	0.86359	0.30113	-0.068
Mof_H 	H 	0.6783	0.8591	0.3024	0.048
Mof_C 	C 	0.6124	0.86291	0.3269	-0.068
Mof_H 	H 	0.6023	0.8584	0.3431	0.046
Mof_C 	C 	0.6022	0.87484	0.3019	-0.044
Mof_H 	H 	0.5832	0.8792	0.3003	0.047
Mof_O 	O 	0.02696	0.59675	0.86617	-0.401
Mof_O 	O 	0.02786	0.63132	0.83059	-0.364
Mof_C 	C 	0.03466	0.60643	0.84506	0.27
Mof_C 	C 	0.05571	0.5927	0.82661	-0.021
Mof_C 	C 	0.06482	0.60059	0.80193	-0.051
Mof_H 	H 	0.0549	0.614	0.792	0.065
Mof_C 	C 	0.14847	0.62509	0.72253	-0.044
Mof_H 	H 	0.1588	0.6208	0.7385	0.046
Mof_C 	C 	0.1593	0.63641	0.69887	-0.068
Mof_H 	H 	0.1783	0.6409	0.6976	0.048
Mof_C 	C 	0.1124	0.63709	0.6731	-0.068
Mof_H 	H 	0.1023	0.6416	0.6569	0.046
Mof_C 	C 	0.1022	0.62516	0.6981	-0.044
Mof_H 	H 	0.0832	0.6208	0.6997	0.046
Mof_O 	O 	0.02696	0.09675	0.36617	-0.401
Mof_O 	O 	0.02786	0.13132	0.33059	-0.364
Mof_C 	C 	0.03466	0.10643	0.34506	0.27
Mof_C 	C 	0.05571	0.0927	0.32661	-0.021
Mof_C 	C 	0.06482	0.10059	0.30193	-0.051
Mof_H 	H 	0.0549	0.114	0.292	0.065
Mof_C 	C 	0.14847	0.12509	0.22253	-0.044
Mof_H 	H 	0.1588	0.1208	0.2385	0.046
Mof_C 	C 	0.1593	0.13641	0.19887	-0.068
Mof_H 	H 	0.1783	0.1409	0.1976	0.048
Mof_C 	C 	0.1124	0.13709	0.1731	-0.068
Mof_H 	H 	0.1023	0.1416	0.1569	0.046
Mof_C 	C 	0.1022	0.12516	0.1981	-0.044
Mof_H 	H 	0.0832	0.1208	0.1997	0.046
Mof_O 	O 	0.52696	0.59675	0.36617	-0.4
Mof_O 	O 	0.52786	0.63132	0.33059	-0.364
Mof_C 	C 	0.53466	0.60643	0.34506	0.27
Mof_C 	C 	0.55571	0.5927	0.32661	-0.02
Mof_C 	C 	0.56482	0.60059	0.30193	-0.051
Mof_H 	H 	0.5549	0.614	0.292	0.066
Mof_C 	C 	0.64847	0.62509	0.22253	-0.044
Mof_H 	H 	0.6588	0.6208	0.2385	0.046
Mof_C 	C 	0.6593	0.63641	0.19887	-0.068
Mof_H 	H 	0.6783	0.6409	0.1976	0.048
Mof_C 	C 	0.6124	0.63709	0.1731	-0.068
Mof_H 	H 	0.6023	0.6416	0.1569	0.046
Mof_C 	C 	0.6022	0.62516	0.1981	-0.044
Mof_H 	H 	0.5832	0.6208	0.1997	0.047
Mof_O 	O 	0.52696	0.09675	0.86617	-0.4
Mof_O 	O 	0.52786	0.13132	0.83059	-0.364
Mof_C 	C 	0.53466	0.10643	0.84506	0.27
Mof_C 	C 	0.55571	0.0927	0.82661	-0.02
Mof_C 	C 	0.56482	0.10059	0.80193	-0.051
Mof_H 	H 	0.5549	0.114	0.792	0.066
Mof_C 	C 	0.64847	0.12509	0.72253	-0.044
Mof_H 	H 	0.6588	0.1208	0.7385	0.046
Mof_C 	C 	0.6593	0.13641	0.69887	-0.068
Mof_H 	H 	0.6783	0.1409	0.6976	0.048
Mof_C 	C 	0.6124	0.13709	0.6731	-0.068
Mof_H 	H 	0.6023	0.1416	0.6569	0.046
Mof_C 	C 	0.6022	0.12516	0.6981	-0.044
Mof_H 	H 	0.5832	0.1208	0.6997	0.046
Mof_O 	O 	0.86617	0.59675	0.02696	-0.401
Mof_O 	O 	0.83059	0.63132	0.02786	-0.364
Mof_C 	C 	0.84506	0.60643	0.03466	0.27
Mof_C 	C 	0.82661	0.5927	0.05571	-0.021
Mof_C 	C 	0.80193	0.60059	0.06482	-0.051
Mof_H 	H 	0.792	0.614	0.0549	0.065
Mof_C 	C 	0.72253	0.62509	0.14847	-0.044
Mof_H 	H 	0.7385	0.6208	0.1588	0.046
Mof_C 	C 	0.69887	0.63641	0.1593	-0.068
Mof_H 	H 	0.6976	0.6409	0.1783	0.048
Mof_C 	C 	0.6731	0.63709	0.1124	-0.068
Mof_H 	H 	0.6569	0.6416	0.1023	0.046
Mof_C 	C 	0.6981	0.62516	0.1022	-0.044
Mof_H 	H 	0.6997	0.6208	0.0832	0.046
Mof_O 	O 	0.86617	0.09675	0.52696	-0.4
Mof_O 	O 	0.83059	0.13132	0.52786	-0.364
Mof_C 	C 	0.84506	0.10643	0.53466	0.27
Mof_C 	C 	0.82661	0.0927	0.55571	-0.02
Mof_C 	C 	0.80193	0.10059	0.56482	-0.051
Mof_H 	H 	0.792	0.114	0.5549	0.066
Mof_C 	C 	0.72253	0.12509	0.64847	-0.044
Mof_H 	H 	0.7385	0.1208	0.6588	0.046
Mof_C 	C 	0.69887	0.13641	0.6593	-0.068
Mof_H 	H 	0.6976	0.1409	0.6783	0.048
Mof_C 	C 	0.6731	0.13709	0.6124	-0.068
Mof_H 	H 	0.6569	0.1416	0.6023	0.046
Mof_C 	C 	0.6981	0.12516	0.6022	-0.044
Mof_H 	H 	0.6997	0.1208	0.5832	0.046
Mof_O 	O 	0.36617	0.59675	0.52696	-0.4
Mof_O 	O 	0.33059	0.63132	0.52786	-0.364
Mof_C 	C 	0.34506	0.60643	0.53466	0.27
Mof_C 	C 	0.32661	0.5927	0.55571	-0.02
Mof_C 	C 	0.30193	0.60059	0.56482	-0.051
Mof_H 	H 	0.292	0.614	0.5549	0.066
Mof_C 	C 	0.22253	0.62509	0.64847	-0.044
Mof_H 	H 	0.2385	0.6208	0.6588	0.046
Mof_C 	C 	0.19887	0.63641	0.6593	-0.068
Mof_H 	H 	0.1976	0.6409	0.6783	0.048
Mof_C 	C 	0.1731	0.63709	0.6124	-0.068
Mof_H 	H 	0.1569	0.6416	0.6023	0.046
Mof_C 	C 	0.1981	0.62516	0.6022	-0.044
Mof_H 	H 	0.1997	0.6208	0.5832	0.047
Mof_O 	O 	0.36617	0.09675	0.02696	-0.401
Mof_O 	O 	0.33059	0.13132	0.02786	-0.364
Mof_C 	C 	0.34506	0.10643	0.03466	0.27
Mof_C 	C 	0.32661	0.0927	0.05571	-0.021
Mof_C 	C 	0.30193	0.10059	0.06482	-0.051
Mof_H 	H 	0.292	0.114	0.0549	0.065
Mof_C 	C 	0.22253	0.12509	0.14847	-0.044
Mof_H 	H 	0.2385	0.1208	0.1588	0.046
Mof_C 	C 	0.19887	0.13641	0.1593	-0.068
Mof_H 	H 	0.1976	0.1409	0.1783	0.048
Mof_C 	C 	0.1731	0.13709	0.1124	-0.068
Mof_H 	H 	0.1569	0.1416	0.1023	0.046
Mof_C 	C 	0.1981	0.12516	0.1022	-0.044
Mof_H 	H 	0.1997	0.1208	0.0832	0.046
Mof_O 	O 	0.13383	0.40325	0.02696	-0.401
Mof_O 	O 	0.16941	0.36868	0.02786	-0.364
Mof_C 	C 	0.15494	0.39357	0.03466	0.27
Mof_C 	C 	0.17339	0.4073	0.05571	-0.021
Mof_C 	C 	0.19807	0.39941	0.06482	-0.051
Mof_H 	H 	0.208	0.386	0.0549	0.065
Mof_C 	C 	0.27747	0.37491	0.14847	-0.044
Mof_H 	H 	0.2615	0.3792	0.1588	0.046
Mof_C 	C 	0.30113	0.36359	0.1593	-0.068
Mof_H 	H 	0.3024	0.3591	0.1783	0.048
Mof_C 	C 	0.3269	0.36291	0.1124	-0.068
Mof_H 	H 	0.3431	0.3584	0.1023	0.046
Mof_C 	C 	0.3019	0.37484	0.1022	-0.044
Mof_H 	H 	0.3003	0.3792	0.0832	0.046
Mof_O 	O 	0.13383	0.90325	0.52696	-0.4
Mof_O 	O 	0.16941	0.86868	0.52786	-0.364
Mof_C 	C 	0.15494	0.89357	0.53466	0.27
Mof_C 	C 	0.17339	0.9073	0.55571	-0.02
Mof_C 	C 	0.19807	0.89941	0.56482	-0.051
Mof_H 	H 	0.208	0.886	0.5549	0.066
Mof_C 	C 	0.27747	0.87491	0.64847	-0.044
Mof_H 	H 	0.2615	0.8792	0.6588	0.046
Mof_C 	C 	0.30113	0.86359	0.6593	-0.068
Mof_H 	H 	0.3024	0.8591	0.6783	0.048
Mof_C 	C 	0.3269	0.86291	0.6124	-0.068
Mof_H 	H 	0.3431	0.8584	0.6023	0.046
Mof_C 	C 	0.3019	0.87484	0.6022	-0.044
Mof_H 	H 	0.3003	0.8792	0.5832	0.047
Mof_O 	O 	0.63383	0.40325	0.52696	-0.4
Mof_O 	O 	0.66941	0.36868	0.52786	-0.364
Mof_C 	C 	0.65494	0.39357	0.53466	0.27
Mof_C 	C 	0.67339	0.4073	0.55571	-0.02
Mof_C 	C 	0.69807	0.39941	0.56482	-0.051
Mof_H 	H 	0.708	0.386	0.5549	0.066
Mof_C 	C 	0.77747	0.37491	0.64847	-0.044
Mof_H 	H 	0.7615	0.3792	0.6588	0.046
Mof_C 	C 	0.80113	0.36359	0.6593	-0.068
Mof_H 	H 	0.8024	0.3591	0.6783	0.048
Mof_C 	C 	0.8269	0.36291	0.6124	-0.068
Mof_H 	H 	0.8431	0.3584	0.6023	0.046
Mof_C 	C 	0.8019	0.37484	0.6022	-0.044
Mof_H 	H 	0.8003	0.3792	0.5832	0.047
Mof_O 	O 	0.63383	0.90325	0.02696	-0.401
Mof_O 	O 	0.66941	0.86868	0.02786	-0.364
Mof_C 	C 	0.65494	0.89357	0.03466	0.27
Mof_C 	C 	0.67339	0.9073	0.05571	-0.02
Mof_C 	C 	0.69807	0.89941	0.06482	-0.051
Mof_H 	H 	0.708	0.886	0.0549	0.066
Mof_C 	C 	0.77747	0.87491	0.14847	-0.044
Mof_H 	H 	0.7615	0.8792	0.1588	0.046
Mof_C 	C 	0.80113	0.86359	0.1593	-0.068
Mof_H 	H 	0.8024	0.8591	0.1783	0.048
Mof_C 	C 	0.8269	0.86291	0.1124	-0.068
Mof_H 	H 	0.8431	0.8584	0.1023	0.046
Mof_C 	C 	0.8019	0.87484	0.1022	-0.044
Mof_H 	H 	0.8003	0.8792	0.0832	0.047
Mof_O 	O 	0.13383	0.59675	0.97304	-0.4
Mof_O 	O 	0.16941	0.63132	0.97214	-0.363
Mof_C 	C 	0.15494	0.60643	0.96534	0.27
Mof_C 	C 	0.17339	0.5927	0.94429	-0.02
Mof_C 	C 	0.19807	0.60059	0.93518	-0.051
Mof_H 	H 	0.208	0.614	0.9451	0.066
Mof_C 	C 	0.27747	0.62509	0.85153	-0.044
Mof_H 	H 	0.2615	0.6208	0.8412	0.046
Mof_C 	C 	0.30113	0.63641	0.8407	-0.068
Mof_H 	H 	0.3024	0.6409	0.8217	0.048
Mof_C 	C 	0.3269	0.63709	0.8876	-0.068
Mof_H 	H 	0.3431	0.6416	0.8977	0.046
Mof_C 	C 	0.3019	0.62516	0.8978	-0.044
Mof_H 	H 	0.3003	0.6208	0.9168	0.047
Mof_O 	O 	0.13383	0.09675	0.47304	-0.4
Mof_O 	O 	0.16941	0.13132	0.47214	-0.364
Mof_C 	C 	0.15494	0.10643	0.46534	0.27
Mof_C 	C 	0.17339	0.0927	0.44429	-0.02
Mof_C 	C 	0.19807	0.10059	0.43518	-0.051
Mof_H 	H 	0.208	0.114	0.4451	0.066
Mof_C 	C 	0.27747	0.12509	0.35153	-0.044
Mof_H 	H 	0.2615	0.1208	0.3412	0.046
Mof_C 	C 	0.30113	0.13641	0.3407	-0.068
Mof_H 	H 	0.3024	0.1409	0.3217	0.048
Mof_C 	C 	0.3269	0.13709	0.3876	-0.068
Mof_H 	H 	0.3431	0.1416	0.3977	0.046
Mof_C 	C 	0.3019	0.12516	0.3978	-0.044
Mof_H 	H 	0.3003	0.1208	0.4168	0.047
Mof_O 	O 	0.63383	0.59675	0.47304	-0.4
Mof_O 	O 	0.66941	0.63132	0.47214	-0.364
Mof_C 	C 	0.65494	0.60643	0.46534	0.27
Mof_C 	C 	0.67339	0.5927	0.44429	-0.02
Mof_C 	C 	0.69807	0.60059	0.43518	-0.051
Mof_H 	H 	0.708	0.614	0.4451	0.066
Mof_C 	C 	0.77747	0.62509	0.35153	-0.044
Mof_H 	H 	0.7615	0.6208	0.3412	0.046
Mof_C 	C 	0.80113	0.63641	0.3407	-0.068
Mof_H 	H 	0.8024	0.6409	0.3217	0.048
Mof_C 	C 	0.8269	0.63709	0.3876	-0.068
Mof_H 	H 	0.8431	0.6416	0.3977	0.046
Mof_C 	C 	0.8019	0.62516	0.3978	-0.044
Mof_H 	H 	0.8003	0.6208	0.4168	0.047
Mof_O 	O 	0.63383	0.09675	0.97304	-0.4
Mof_O 	O 	0.66941	0.13132	0.97214	-0.363
Mof_C 	C 	0.65494	0.10643	0.96534	0.27
Mof_C 	C 	0.67339	0.0927	0.94429	-0.02
Mof_C 	C 	0.69807	0.10059	0.93518	-0.051
Mof_H 	H 	0.708	0.114	0.9451	0.066
Mof_C 	C 	0.77747	0.12509	0.85153	-0.044
Mof_H 	H 	0.7615	0.1208	0.8412	0.046
Mof_C 	C 	0.80113	0.13641	0.8407	-0.068
Mof_H 	H 	0.8024	0.1409	0.8217	0.048
Mof_C 	C 	0.8269	0.13709	0.8876	-0.068
Mof_H 	H 	0.8431	0.1416	0.8977	0.046
Mof_C 	C 	0.8019	0.12516	0.8978	-0.044
Mof_H 	H 	0.8003	0.1208	0.9168	0.047
Mof_O 	O 	0.86617	0.40325	0.97304	-0.399
Mof_O 	O 	0.83059	0.36868	0.97214	-0.363
Mof_C 	C 	0.84506	0.39357	0.96534	0.27
Mof_C 	C 	0.82661	0.4073	0.94429	-0.02
Mof_C 	C 	0.80193	0.39941	0.93518	-0.051
Mof_H 	H 	0.792	0.386	0.9451	0.066
Mof_C 	C 	0.72253	0.37491	0.85153	-0.044
Mof_H 	H 	0.7385	0.3792	0.8412	0.046
Mof_C 	C 	0.69887	0.36359	0.8407	-0.068
Mof_H 	H 	0.6976	0.3591	0.8217	0.048
Mof_C 	C 	0.6731	0.36291	0.8876	-0.068
Mof_H 	H 	0.6569	0.3584	0.8977	0.046
Mof_C 	C 	0.6981	0.37484	0.8978	-0.044
Mof_H 	H 	0.6997	0.3792	0.9168	0.047
Mof_O 	O 	0.86617	0.90325	0.47304	-0.4
Mof_O 	O 	0.83059	0.86868	0.47214	-0.364
Mof_C 	C 	0.84506	0.89357	0.46534	0.27
Mof_C 	C 	0.82661	0.9073	0.44429	-0.02
Mof_C 	C 	0.80193	0.89941	0.43518	-0.051
Mof_H 	H 	0.792	0.886	0.4451	0.066
Mof_C 	C 	0.72253	0.87491	0.35153	-0.044
Mof_H 	H 	0.7385	0.8792	0.3412	0.046
Mof_C 	C 	0.69887	0.86359	0.3407	-0.068
Mof_H 	H 	0.6976	0.8591	0.3217	0.048
Mof_C 	C 	0.6731	0.86291	0.3876	-0.068
Mof_H 	H 	0.6569	0.8584	0.3977	0.046
Mof_C 	C 	0.6981	0.87484	0.3978	-0.044
Mof_H 	H 	0.6997	0.8792	0.4168	0.047
Mof_O 	O 	0.36617	0.40325	0.47304	-0.4
Mof_O 	O 	0.33059	0.36868	0.47214	-0.364
Mof_C 	C 	0.34506	0.39357	0.46534	0.27
Mof_C 	C 	0.32661	0.4073	0.44429	-0.02
Mof_C 	C 	0.30193	0.39941	0.43518	-0.051
Mof_H 	H 	0.292	0.386	0.4451	0.066
Mof_C 	C 	0.22253	0.37491	0.35153	-0.044
Mof_H 	H 	0.2385	0.3792	0.3412	0.046
Mof_C 	C 	0.19887	0.36359	0.3407	-0.068
Mof_H 	H 	0.1976	0.3591	0.3217	0.048
Mof_C 	C 	0.1731	0.36291	0.3876	-0.068
Mof_H 	H 	0.1569	0.3584	0.3977	0.046
Mof_C 	C 	0.1981	0.37484	0.3978	-0.044
Mof_H 	H 	0.1997	0.3792	0.4168	0.047
Mof_O 	O 	0.36617	0.90325	0.97304	-0.399
Mof_O 	O 	0.33059	0.86868	0.97214	-0.363
Mof_C 	C 	0.34506	0.89357	0.96534	0.27
Mof_C 	C 	0.32661	0.9073	0.94429	-0.02
Mof_C 	C 	0.30193	0.89941	0.93518	-0.051
Mof_H 	H 	0.292	0.886	0.9451	0.066
Mof_C 	C 	0.22253	0.87491	0.85153	-0.044
Mof_H 	H 	0.2385	0.8792	0.8412	0.046
Mof_C 	C 	0.19887	0.86359	0.8407	-0.068
Mof_H 	H 	0.1976	0.8591	0.8217	0.048
Mof_C 	C 	0.1731	0.86291	0.8876	-0.068
Mof_H 	H 	0.1569	0.8584	0.8977	0.046
Mof_C 	C 	0.1981	0.87484	0.8978	-0.044
Mof_H 	H 	0.1997	0.8792	0.9168	0.047
Mof_O 	O 	0.02696	0.86617	0.59675	-0.401
Mof_O 	O 	0.02786	0.83059	0.63132	-0.364
Mof_C 	C 	0.03466	0.84506	0.60643	0.27
Mof_C 	C 	0.05571	0.82661	0.5927	-0.021
Mof_C 	C 	0.06482	0.80193	0.60059	-0.051
Mof_H 	H 	0.0549	0.792	0.614	0.065
Mof_C 	C 	0.14847	0.72253	0.62509	-0.044
Mof_H 	H 	0.1588	0.7385	0.6208	0.046
Mof_C 	C 	0.1593	0.69887	0.63641	-0.068
Mof_H 	H 	0.1783	0.6976	0.6409	0.048
Mof_C 	C 	0.1124	0.6731	0.63709	-0.068
Mof_H 	H 	0.1023	0.6569	0.6416	0.046
Mof_C 	C 	0.1022	0.6981	0.62516	-0.044
Mof_H 	H 	0.0832	0.6997	0.6208	0.046
Mof_O 	O 	0.02696	0.36617	0.09675	-0.401
Mof_O 	O 	0.02786	0.33059	0.13132	-0.364
Mof_C 	C 	0.03466	0.34506	0.10643	0.27
Mof_C 	C 	0.05571	0.32661	0.0927	-0.021
Mof_C 	C 	0.06482	0.30193	0.10059	-0.051
Mof_H 	H 	0.0549	0.292	0.114	0.065
Mof_C 	C 	0.14847	0.22253	0.12509	-0.044
Mof_H 	H 	0.1588	0.2385	0.1208	0.046
Mof_C 	C 	0.1593	0.19887	0.13641	-0.068
Mof_H 	H 	0.1783	0.1976	0.1409	0.048
Mof_C 	C 	0.1124	0.1731	0.13709	-0.068
Mof_H 	H 	0.1023	0.1569	0.1416	0.046
Mof_C 	C 	0.1022	0.1981	0.12516	-0.044
Mof_H 	H 	0.0832	0.1997	0.1208	0.046
Mof_O 	O 	0.52696	0.86617	0.09675	-0.4
Mof_O 	O 	0.52786	0.83059	0.13132	-0.364
Mof_C 	C 	0.53466	0.84506	0.10643	0.27
Mof_C 	C 	0.55571	0.82661	0.0927	-0.02
Mof_C 	C 	0.56482	0.80193	0.10059	-0.051
Mof_H 	H 	0.5549	0.792	0.114	0.066
Mof_C 	C 	0.64847	0.72253	0.12509	-0.044
Mof_H 	H 	0.6588	0.7385	0.1208	0.046
Mof_C 	C 	0.6593	0.69887	0.13641	-0.068
Mof_H 	H 	0.6783	0.6976	0.1409	0.048
Mof_C 	C 	0.6124	0.6731	0.13709	-0.068
Mof_H 	H 	0.6023	0.6569	0.1416	0.046
Mof_C 	C 	0.6022	0.6981	0.12516	-0.044
Mof_H 	H 	0.5832	0.6997	0.1208	0.046
Mof_O 	O 	0.52696	0.36617	0.59675	-0.4
Mof_O 	O 	0.52786	0.33059	0.63132	-0.364
Mof_C 	C 	0.53466	0.34506	0.60643	0.27
Mof_C 	C 	0.55571	0.32661	0.5927	-0.02
Mof_C 	C 	0.56482	0.30193	0.60059	-0.051
Mof_H 	H 	0.5549	0.292	0.614	0.066
Mof_C 	C 	0.64847	0.22253	0.62509	-0.044
Mof_H 	H 	0.6588	0.2385	0.6208	0.046
Mof_C 	C 	0.6593	0.19887	0.63641	-0.068
Mof_H 	H 	0.6783	0.1976	0.6409	0.048
Mof_C 	C 	0.6124	0.1731	0.63709	-0.068
Mof_H 	H 	0.6023	0.1569	0.6416	0.046
Mof_C 	C 	0.6022	0.1981	0.62516	-0.044
Mof_H 	H 	0.5832	0.1997	0.6208	0.047
Mof_O 	O 	0.02696	0.13383	0.40325	-0.401
Mof_O 	O 	0.02786	0.16941	0.36868	-0.364
Mof_C 	C 	0.03466	0.15494	0.39357	0.27
Mof_C 	C 	0.05571	0.17339	0.4073	-0.021
Mof_C 	C 	0.06482	0.19807	0.39941	-0.051
Mof_H 	H 	0.0549	0.208	0.386	0.065
Mof_C 	C 	0.14847	0.27747	0.37491	-0.044
Mof_H 	H 	0.1588	0.2615	0.3792	0.046
Mof_C 	C 	0.1593	0.30113	0.36359	-0.068
Mof_H 	H 	0.1783	0.3024	0.3591	0.048
Mof_C 	C 	0.1124	0.3269	0.36291	-0.068
Mof_H 	H 	0.1023	0.3431	0.3584	0.046
Mof_C 	C 	0.1022	0.3019	0.37484	-0.044
Mof_H 	H 	0.0832	0.3003	0.3792	0.046
Mof_O 	O 	0.02696	0.63383	0.90325	-0.401
Mof_O 	O 	0.02786	0.66941	0.86868	-0.364
Mof_C 	C 	0.03466	0.65494	0.89357	0.27
Mof_C 	C 	0.05571	0.67339	0.9073	-0.02
Mof_C 	C 	0.06482	0.69807	0.89941	-0.051
Mof_H 	H 	0.0549	0.708	0.886	0.066
Mof_C 	C 	0.14847	0.77747	0.87491	-0.044
Mof_H 	H 	0.1588	0.7615	0.8792	0.046
Mof_C 	C 	0.1593	0.80113	0.86359	-0.068
Mof_H 	H 	0.1783	0.8024	0.8591	0.048
Mof_C 	C 	0.1124	0.8269	0.86291	-0.068
Mof_H 	H 	0.1023	0.8431	0.8584	0.046
Mof_C 	C 	0.1022	0.8019	0.87484	-0.044
Mof_H 	H 	0.0832	0.8003	0.8792	0.047
Mof_O 	O 	0.52696	0.13383	0.90325	-0.4
Mof_O 	O 	0.52786	0.16941	0.86868	-0.364
Mof_C 	C 	0.53466	0.15494	0.89357	0.27
Mof_C 	C 	0.55571	0.17339	0.9073	-0.02
Mof_C 	C 	0.56482	0.19807	0.89941	-0.051
Mof_H 	H 	0.5549	0.208	0.886	0.066
Mof_C 	C 	0.64847	0.27747	0.87491	-0.044
Mof_H 	H 	0.6588	0.2615	0.8792	0.046
Mof_C 	C 	0.6593	0.30113	0.86359	-0.068
Mof_H 	H 	0.6783	0.3024	0.8591	0.048
Mof_C 	C 	0.6124	0.3269	0.86291	-0.068
Mof_H 	H 	0.6023	0.3431	0.8584	0.046
Mof_C 	C 	0.6022	0.3019	0.87484	-0.044
Mof_H 	H 	0.5832	0.3003	0.8792	0.047
Mof_O 	O 	0.52696	0.63383	0.40325	-0.4
Mof_O 	O 	0.52786	0.66941	0.36868	-0.364
Mof_C 	C 	0.53466	0.65494	0.39357	0.27
Mof_C 	C 	0.55571	0.67339	0.4073	-0.02
Mof_C 	C 	0.56482	0.69807	0.39941	-0.051
Mof_H 	H 	0.5549	0.708	0.386	0.066
Mof_C 	C 	0.64847	0.77747	0.37491	-0.044
Mof_H 	H 	0.6588	0.7615	0.3792	0.046
Mof_C 	C 	0.6593	0.80113	0.36359	-0.068
Mof_H 	H 	0.6783	0.8024	0.3591	0.048
Mof_C 	C 	0.6124	0.8269	0.36291	-0.068
Mof_H 	H 	0.6023	0.8431	0.3584	0.046
Mof_C 	C 	0.6022	0.8019	0.37484	-0.044
Mof_H 	H 	0.5832	0.8003	0.3792	0.047
Mof_O 	O 	0.97304	0.13383	0.59675	-0.4
Mof_O 	O 	0.97214	0.16941	0.63132	-0.363
Mof_C 	C 	0.96534	0.15494	0.60643	0.27
Mof_C 	C 	0.94429	0.17339	0.5927	-0.02
Mof_C 	C 	0.93518	0.19807	0.60059	-0.051
Mof_H 	H 	0.9451	0.208	0.614	0.066
Mof_C 	C 	0.85153	0.27747	0.62509	-0.044
Mof_H 	H 	0.8412	0.2615	0.6208	0.046
Mof_C 	C 	0.8407	0.30113	0.63641	-0.068
Mof_H 	H 	0.8217	0.3024	0.6409	0.048
Mof_C 	C 	0.8876	0.3269	0.63709	-0.068
Mof_H 	H 	0.8977	0.3431	0.6416	0.046
Mof_C 	C 	0.8978	0.3019	0.62516	-0.044
Mof_H 	H 	0.9168	0.3003	0.6208	0.047
Mof_O 	O 	0.97304	0.63383	0.09675	-0.4
Mof_O 	O 	0.97214	0.66941	0.13132	-0.363
Mof_C 	C 	0.96534	0.65494	0.10643	0.27
Mof_C 	C 	0.94429	0.67339	0.0927	-0.02
Mof_C 	C 	0.93518	0.69807	0.10059	-0.051
Mof_H 	H 	0.9451	0.708	0.114	0.066
Mof_C 	C 	0.85153	0.77747	0.12509	-0.044
Mof_H 	H 	0.8412	0.7615	0.1208	0.046
Mof_C 	C 	0.8407	0.80113	0.13641	-0.068
Mof_H 	H 	0.8217	0.8024	0.1409	0.048
Mof_C 	C 	0.8876	0.8269	0.13709	-0.068
Mof_H 	H 	0.8977	0.8431	0.1416	0.046
Mof_C 	C 	0.8978	0.8019	0.12516	-0.044
Mof_H 	H 	0.9168	0.8003	0.1208	0.047
Mof_O 	O 	0.47304	0.13383	0.09675	-0.4
Mof_O 	O 	0.47214	0.16941	0.13132	-0.364
Mof_C 	C 	0.46534	0.15494	0.10643	0.27
Mof_C 	C 	0.44429	0.17339	0.0927	-0.02
Mof_C 	C 	0.43518	0.19807	0.10059	-0.051
Mof_H 	H 	0.4451	0.208	0.114	0.066
Mof_C 	C 	0.35153	0.27747	0.12509	-0.044
Mof_H 	H 	0.3412	0.2615	0.1208	0.046
Mof_C 	C 	0.3407	0.30113	0.13641	-0.068
Mof_H 	H 	0.3217	0.3024	0.1409	0.048
Mof_C 	C 	0.3876	0.3269	0.13709	-0.068
Mof_H 	H 	0.3977	0.3431	0.1416	0.046
Mof_C 	C 	0.3978	0.3019	0.12516	-0.044
Mof_H 	H 	0.4168	0.3003	0.1208	0.047
Mof_O 	O 	0.47304	0.63383	0.59675	-0.4
Mof_O 	O 	0.47214	0.66941	0.63132	-0.364
Mof_C 	C 	0.46534	0.65494	0.60643	0.27
Mof_C 	C 	0.44429	0.67339	0.5927	-0.02
Mof_C 	C 	0.43518	0.69807	0.60059	-0.051
Mof_H 	H 	0.4451	0.708	0.614	0.066
Mof_C 	C 	0.35153	0.77747	0.62509	-0.044
Mof_H 	H 	0.3412	0.7615	0.6208	0.046
Mof_C 	C 	0.3407	0.80113	0.63641	-0.068
Mof_H 	H 	0.3217	0.8024	0.6409	0.048
Mof_C 	C 	0.3876	0.8269	0.63709	-0.068
Mof_H 	H 	0.3977	0.8431	0.6416	0.046
Mof_C 	C 	0.3978	0.8019	0.62516	-0.044
Mof_H 	H 	0.4168	0.8003	0.6208	0.047
Mof_O 	O 	0.97304	0.86617	0.40325	-0.399
Mof_O 	O 	0.97214	0.83059	0.36868	-0.363
Mof_C 	C 	0.96534	0.84506	0.39357	0.27
Mof_C 	C 	0.94429	0.82661	0.4073	-0.02
Mof_C 	C 	0.93518	0.80193	0.39941	-0.051
Mof_H 	H 	0.9451	0.792	0.386	0.066
Mof_C 	C 	0.85153	0.72253	0.37491	-0.044
Mof_H 	H 	0.8412	0.7385	0.3792	0.046
Mof_C 	C 	0.8407	0.69887	0.36359	-0.068
Mof_H 	H 	0.8217	0.6976	0.3591	0.048
Mof_C 	C 	0.8876	0.6731	0.36291	-0.068
Mof_H 	H 	0.8977	0.6569	0.3584	0.046
Mof_C 	C 	0.8978	0.6981	0.37484	-0.044
Mof_H 	H 	0.9168	0.6997	0.3792	0.047
Mof_O 	O 	0.97304	0.36617	0.90325	-0.399
Mof_O 	O 	0.97214	0.33059	0.86868	-0.363
Mof_C 	C 	0.96534	0.34506	0.89357	0.27
Mof_C 	C 	0.94429	0.32661	0.9073	-0.02
Mof_C 	C 	0.93518	0.30193	0.89941	-0.051
Mof_H 	H 	0.9451	0.292	0.886	0.066
Mof_C 	C 	0.85153	0.22253	0.87491	-0.044
Mof_H 	H 	0.8412	0.2385	0.8792	0.046
Mof_C 	C 	0.8407	0.19887	0.86359	-0.068
Mof_H 	H 	0.8217	0.1976	0.8591	0.048
Mof_C 	C 	0.8876	0.1731	0.86291	-0.068
Mof_H 	H 	0.8977	0.1569	0.8584	0.046
Mof_C 	C 	0.8978	0.1981	0.87484	-0.044
Mof_H 	H 	0.9168	0.1997	0.8792	0.047
Mof_O 	O 	0.47304	0.86617	0.90325	-0.4
Mof_O 	O 	0.47214	0.83059	0.86868	-0.364
Mof_C 	C 	0.46534	0.84506	0.89357	0.27
Mof_C 	C 	0.44429	0.82661	0.9073	-0.02
Mof_C 	C 	0.43518	0.80193	0.89941	-0.051
Mof_H 	H 	0.4451	0.792	0.886	0.066
Mof_C 	C 	0.35153	0.72253	0.87491	-0.044
Mof_H 	H 	0.3412	0.7385	0.8792	0.046
Mof_C 	C 	0.3407	0.69887	0.86359	-0.068
Mof_H 	H 	0.3217	0.6976	0.8591	0.048
Mof_C 	C 	0.3876	0.6731	0.86291	-0.068
Mof_H 	H 	0.3977	0.6569	0.8584	0.046
Mof_C 	C 	0.3978	0.6981	0.87484	-0.044
Mof_H 	H 	0.4168	0.6997	0.8792	0.047
Mof_O 	O 	0.47304	0.36617	0.40325	-0.4
Mof_O 	O 	0.47214	0.33059	0.36868	-0.364
Mof_C 	C 	0.46534	0.34506	0.39357	0.27
Mof_C 	C 	0.44429	0.32661	0.4073	-0.02
Mof_C 	C 	0.43518	0.30193	0.39941	-0.051
Mof_H 	H 	0.4451	0.292	0.386	0.066
Mof_C 	C 	0.35153	0.22253	0.37491	-0.044
Mof_H 	H 	0.3412	0.2385	0.3792	0.046
Mof_C 	C 	0.3407	0.19887	0.36359	-0.068
Mof_H 	H 	0.3217	0.1976	0.3591	0.048
Mof_C 	C 	0.3876	0.1731	0.36291	-0.068
Mof_H 	H 	0.3977	0.1569	0.3584	0.046
Mof_C 	C 	0.3978	0.1981	0.37484	-0.044
Mof_H 	H 	0.4168	0.1997	0.3792	0.047
Mof_O 	O 	0.59675	0.02696	0.86617	-0.401
Mof_O 	O 	0.63132	0.02786	0.83059	-0.364
Mof_C 	C 	0.60643	0.03466	0.84506	0.27
Mof_C 	C 	0.5927	0.05571	0.82661	-0.021
Mof_C 	C 	0.60059	0.06482	0.80193	-0.051
Mof_H 	H 	0.614	0.0549	0.792	0.065
Mof_C 	C 	0.62509	0.14847	0.72253	-0.044
Mof_H 	H 	0.6208	0.1588	0.7385	0.046
Mof_C 	C 	0.63641	0.1593	0.69887	-0.068
Mof_H 	H 	0.6409	0.1783	0.6976	0.048
Mof_C 	C 	0.63709	0.1124	0.6731	-0.068
Mof_H 	H 	0.6416	0.1023	0.6569	0.046
Mof_C 	C 	0.62516	0.1022	0.6981	-0.044
Mof_H 	H 	0.6208	0.0832	0.6997	0.046
Mof_O 	O 	0.59675	0.52696	0.36617	-0.4
Mof_O 	O 	0.63132	0.52786	0.33059	-0.364
Mof_C 	C 	0.60643	0.53466	0.34506	0.27
Mof_C 	C 	0.5927	0.55571	0.32661	-0.02
Mof_C 	C 	0.60059	0.56482	0.30193	-0.051
Mof_H 	H 	0.614	0.5549	0.292	0.066
Mof_C 	C 	0.62509	0.64847	0.22253	-0.044
Mof_H 	H 	0.6208	0.6588	0.2385	0.046
Mof_C 	C 	0.63641	0.6593	0.19887	-0.068
Mof_H 	H 	0.6409	0.6783	0.1976	0.048
Mof_C 	C 	0.63709	0.6124	0.1731	-0.068
Mof_H 	H 	0.6416	0.6023	0.1569	0.046
Mof_C 	C 	0.62516	0.6022	0.1981	-0.044
Mof_H 	H 	0.6208	0.5832	0.1997	0.047
Mof_O 	O 	0.09675	0.02696	0.36617	-0.401
Mof_O 	O 	0.13132	0.02786	0.33059	-0.364
Mof_C 	C 	0.10643	0.03466	0.34506	0.27
Mof_C 	C 	0.0927	0.05571	0.32661	-0.021
Mof_C 	C 	0.10059	0.06482	0.30193	-0.051
Mof_H 	H 	0.114	0.0549	0.292	0.065
Mof_C 	C 	0.12509	0.14847	0.22253	-0.044
Mof_H 	H 	0.1208	0.1588	0.2385	0.046
Mof_C 	C 	0.13641	0.1593	0.19887	-0.068
Mof_H 	H 	0.1409	0.1783	0.1976	0.048
Mof_C 	C 	0.13709	0.1124	0.1731	-0.068
Mof_H 	H 	0.1416	0.1023	0.1569	0.046
Mof_C 	C 	0.12516	0.1022	0.1981	-0.044
Mof_H 	H 	0.1208	0.0832	0.1997	0.046
Mof_O 	O 	0.09675	0.52696	0.86617	-0.4
Mof_O 	O 	0.13132	0.52786	0.83059	-0.364
Mof_C 	C 	0.10643	0.53466	0.84506	0.27
Mof_C 	C 	0.0927	0.55571	0.82661	-0.02
Mof_C 	C 	0.10059	0.56482	0.80193	-0.051
Mof_H 	H 	0.114	0.5549	0.792	0.066
Mof_C 	C 	0.12509	0.64847	0.72253	-0.044
Mof_H 	H 	0.1208	0.6588	0.7385	0.046
Mof_C 	C 	0.13641	0.6593	0.69887	-0.068
Mof_H 	H 	0.1409	0.6783	0.6976	0.048
Mof_C 	C 	0.13709	0.6124	0.6731	-0.068
Mof_H 	H 	0.1416	0.6023	0.6569	0.046
Mof_C 	C 	0.12516	0.6022	0.6981	-0.044
Mof_H 	H 	0.1208	0.5832	0.6997	0.046
Mof_O 	O 	0.40325	0.02696	0.13383	-0.401
Mof_O 	O 	0.36868	0.02786	0.16941	-0.364
Mof_C 	C 	0.39357	0.03466	0.15494	0.27
Mof_C 	C 	0.4073	0.05571	0.17339	-0.021
Mof_C 	C 	0.39941	0.06482	0.19807	-0.051
Mof_H 	H 	0.386	0.0549	0.208	0.065
Mof_C 	C 	0.37491	0.14847	0.27747	-0.044
Mof_H 	H 	0.3792	0.1588	0.2615	0.046
Mof_C 	C 	0.36359	0.1593	0.30113	-0.068
Mof_H 	H 	0.3591	0.1783	0.3024	0.048
Mof_C 	C 	0.36291	0.1124	0.3269	-0.068
Mof_H 	H 	0.3584	0.1023	0.3431	0.046
Mof_C 	C 	0.37484	0.1022	0.3019	-0.044
Mof_H 	H 	0.3792	0.0832	0.3003	0.046
Mof_O 	O 	0.40325	0.52696	0.63383	-0.4
Mof_O 	O 	0.36868	0.52786	0.66941	-0.364
Mof_C 	C 	0.39357	0.53466	0.65494	0.27
Mof_C 	C 	0.4073	0.55571	0.67339	-0.02
Mof_C 	C 	0.39941	0.56482	0.69807	-0.051
Mof_H 	H 	0.386	0.5549	0.708	0.066
Mof_C 	C 	0.37491	0.64847	0.77747	-0.044
Mof_H 	H 	0.3792	0.6588	0.7615	0.046
Mof_C 	C 	0.36359	0.6593	0.80113	-0.068
Mof_H 	H 	0.3591	0.6783	0.8024	0.048
Mof_C 	C 	0.36291	0.6124	0.8269	-0.068
Mof_H 	H 	0.3584	0.6023	0.8431	0.046
Mof_C 	C 	0.37484	0.6022	0.8019	-0.044
Mof_H 	H 	0.3792	0.5832	0.8003	0.047
Mof_O 	O 	0.90325	0.02696	0.63383	-0.401
Mof_O 	O 	0.86868	0.02786	0.66941	-0.364
Mof_C 	C 	0.89357	0.03466	0.65494	0.27
Mof_C 	C 	0.9073	0.05571	0.67339	-0.02
Mof_C 	C 	0.89941	0.06482	0.69807	-0.051
Mof_H 	H 	0.886	0.0549	0.708	0.066
Mof_C 	C 	0.87491	0.14847	0.77747	-0.044
Mof_H 	H 	0.8792	0.1588	0.7615	0.046
Mof_C 	C 	0.86359	0.1593	0.80113	-0.068
Mof_H 	H 	0.8591	0.1783	0.8024	0.048
Mof_C 	C 	0.86291	0.1124	0.8269	-0.068
Mof_H 	H 	0.8584	0.1023	0.8431	0.046
Mof_C 	C 	0.87484	0.1022	0.8019	-0.044
Mof_H 	H 	0.8792	0.0832	0.8003	0.047
Mof_O 	O 	0.90325	0.52696	0.13383	-0.4
Mof_O 	O 	0.86868	0.52786	0.16941	-0.364
Mof_C 	C 	0.89357	0.53466	0.15494	0.27
Mof_C 	C 	0.9073	0.55571	0.17339	-0.02
Mof_C 	C 	0.89941	0.56482	0.19807	-0.051
Mof_H 	H 	0.886	0.5549	0.208	0.066
Mof_C 	C 	0.87491	0.64847	0.27747	-0.044
Mof_H 	H 	0.8792	0.6588	0.2615	0.046
Mof_C 	C 	0.86359	0.6593	0.30113	-0.068
Mof_H 	H 	0.8591	0.6783	0.3024	0.048
Mof_C 	C 	0.86291	0.6124	0.3269	-0.068
Mof_H 	H 	0.8584	0.6023	0.3431	0.046
Mof_C 	C 	0.87484	0.6022	0.3019	-0.044
Mof_H 	H 	0.8792	0.5832	0.3003	0.047
Mof_O 	O 	0.59675	0.97304	0.13383	-0.4
Mof_O 	O 	0.63132	0.97214	0.16941	-0.363
Mof_C 	C 	0.60643	0.96534	0.15494	0.27
Mof_C 	C 	0.5927	0.94429	0.17339	-0.02
Mof_C 	C 	0.60059	0.93518	0.19807	-0.051
Mof_H 	H 	0.614	0.9451	0.208	0.066
Mof_C 	C 	0.62509	0.85153	0.27747	-0.044
Mof_H 	H 	0.6208	0.8412	0.2615	0.046
Mof_C 	C 	0.63641	0.8407	0.30113	-0.068
Mof_H 	H 	0.6409	0.8217	0.3024	0.048
Mof_C 	C 	0.63709	0.8876	0.3269	-0.068
Mof_H 	H 	0.6416	0.8977	0.3431	0.046
Mof_C 	C 	0.62516	0.8978	0.3019	-0.044
Mof_H 	H 	0.6208	0.9168	0.3003	0.047
Mof_O 	O 	0.59675	0.47304	0.63383	-0.4
Mof_O 	O 	0.63132	0.47214	0.66941	-0.364
Mof_C 	C 	0.60643	0.46534	0.65494	0.27
Mof_C 	C 	0.5927	0.44429	0.67339	-0.02
Mof_C 	C 	0.60059	0.43518	0.69807	-0.051
Mof_H 	H 	0.614	0.4451	0.708	0.066
Mof_C 	C 	0.62509	0.35153	0.77747	-0.044
Mof_H 	H 	0.6208	0.3412	0.7615	0.046
Mof_C 	C 	0.63641	0.3407	0.80113	-0.068
Mof_H 	H 	0.6409	0.3217	0.8024	0.048
Mof_C 	C 	0.63709	0.3876	0.8269	-0.068
Mof_H 	H 	0.6416	0.3977	0.8431	0.046
Mof_C 	C 	0.62516	0.3978	0.8019	-0.044
Mof_H 	H 	0.6208	0.4168	0.8003	0.047
Mof_O 	O 	0.09675	0.97304	0.63383	-0.4
Mof_O 	O 	0.13132	0.97214	0.66941	-0.363
Mof_C 	C 	0.10643	0.96534	0.65494	0.27
Mof_C 	C 	0.0927	0.94429	0.67339	-0.02
Mof_C 	C 	0.10059	0.93518	0.69807	-0.051
Mof_H 	H 	0.114	0.9451	0.708	0.066
Mof_C 	C 	0.12509	0.85153	0.77747	-0.044
Mof_H 	H 	0.1208	0.8412	0.7615	0.046
Mof_C 	C 	0.13641	0.8407	0.80113	-0.068
Mof_H 	H 	0.1409	0.8217	0.8024	0.048
Mof_C 	C 	0.13709	0.8876	0.8269	-0.068
Mof_H 	H 	0.1416	0.8977	0.8431	0.046
Mof_C 	C 	0.12516	0.8978	0.8019	-0.044
Mof_H 	H 	0.1208	0.9168	0.8003	0.047
Mof_O 	O 	0.09675	0.47304	0.13383	-0.4
Mof_O 	O 	0.13132	0.47214	0.16941	-0.364
Mof_C 	C 	0.10643	0.46534	0.15494	0.27
Mof_C 	C 	0.0927	0.44429	0.17339	-0.02
Mof_C 	C 	0.10059	0.43518	0.19807	-0.051
Mof_H 	H 	0.114	0.4451	0.208	0.066
Mof_C 	C 	0.12509	0.35153	0.27747	-0.044
Mof_H 	H 	0.1208	0.3412	0.2615	0.046
Mof_C 	C 	0.13641	0.3407	0.30113	-0.068
Mof_H 	H 	0.1409	0.3217	0.3024	0.048
Mof_C 	C 	0.13709	0.3876	0.3269	-0.068
Mof_H 	H 	0.1416	0.3977	0.3431	0.046
Mof_C 	C 	0.12516	0.3978	0.3019	-0.044
Mof_H 	H 	0.1208	0.4168	0.3003	0.047
Mof_O 	O 	0.40325	0.97304	0.86617	-0.399
Mof_O 	O 	0.36868	0.97214	0.83059	-0.363
Mof_C 	C 	0.39357	0.96534	0.84506	0.27
Mof_C 	C 	0.4073	0.94429	0.82661	-0.02
Mof_C 	C 	0.39941	0.93518	0.80193	-0.051
Mof_H 	H 	0.386	0.9451	0.792	0.066
Mof_C 	C 	0.37491	0.85153	0.72253	-0.044
Mof_H 	H 	0.3792	0.8412	0.7385	0.046
Mof_C 	C 	0.36359	0.8407	0.69887	-0.068
Mof_H 	H 	0.3591	0.8217	0.6976	0.048
Mof_C 	C 	0.36291	0.8876	0.6731	-0.068
Mof_H 	H 	0.3584	0.8977	0.6569	0.046
Mof_C 	C 	0.37484	0.8978	0.6981	-0.044
Mof_H 	H 	0.3792	0.9168	0.6997	0.047
Mof_O 	O 	0.40325	0.47304	0.36617	-0.4
Mof_O 	O 	0.36868	0.47214	0.33059	-0.364
Mof_C 	C 	0.39357	0.46534	0.34506	0.27
Mof_C 	C 	0.4073	0.44429	0.32661	-0.02
Mof_C 	C 	0.39941	0.43518	0.30193	-0.051
Mof_H 	H 	0.386	0.4451	0.292	0.066
Mof_C 	C 	0.37491	0.35153	0.22253	-0.044
Mof_H 	H 	0.3792	0.3412	0.2385	0.046
Mof_C 	C 	0.36359	0.3407	0.19887	-0.068
Mof_H 	H 	0.3591	0.3217	0.1976	0.048
Mof_C 	C 	0.36291	0.3876	0.1731	-0.068
Mof_H 	H 	0.3584	0.3977	0.1569	0.046
Mof_C 	C 	0.37484	0.3978	0.1981	-0.044
Mof_H 	H 	0.3792	0.4168	0.1997	0.047
Mof_O 	O 	0.90325	0.97304	0.36617	-0.399
Mof_O 	O 	0.86868	0.97214	0.33059	-0.363
Mof_C 	C 	0.89357	0.96534	0.34506	0.27
Mof_C 	C 	0.9073	0.94429	0.32661	-0.02
Mof_C 	C 	0.89941	0.93518	0.30193	-0.051
Mof_H 	H 	0.886	0.9451	0.292	0.066
Mof_C 	C 	0.87491	0.85153	0.22253	-0.044
Mof_H 	H 	0.8792	0.8412	0.2385	0.046
Mof_C 	C 	0.86359	0.8407	0.19887	-0.068
Mof_H 	H 	0.8591	0.8217	0.1976	0.048
Mof_C 	C 	0.86291	0.8876	0.1731	-0.068
Mof_H 	H 	0.8584	0.8977	0.1569	0.046
Mof_C 	C 	0.87484	0.8978	0.1981	-0.044
Mof_H 	H 	0.8792	0.9168	0.1997	0.047
Mof_O 	O 	0.90325	0.47304	0.86617	-0.4
Mof_O 	O 	0.86868	0.47214	0.83059	-0.364
Mof_C 	C 	0.89357	0.46534	0.84506	0.27
Mof_C 	C 	0.9073	0.44429	0.82661	-0.02
Mof_C 	C 	0.89941	0.43518	0.80193	-0.051
Mof_H 	H 	0.886	0.4451	0.792	0.066
Mof_C 	C 	0.87491	0.35153	0.72253	-0.044
Mof_H 	H 	0.8792	0.3412	0.7385	0.046
Mof_C 	C 	0.86359	0.3407	0.69887	-0.068
Mof_H 	H 	0.8591	0.3217	0.6976	0.048
Mof_C 	C 	0.86291	0.3876	0.6731	-0.068
Mof_H 	H 	0.8584	0.3977	0.6569	0.046
Mof_C 	C 	0.87484	0.3978	0.6981	-0.044
Mof_H 	H 	0.8792	0.4168	0.6997	0.047
Mof_O 	O 	0.59675	0.86617	0.97304	-0.399
Mof_O 	O 	0.63132	0.83059	0.97214	-0.363
Mof_C 	C 	0.60643	0.84506	0.96534	0.27
Mof_C 	C 	0.5927	0.82661	0.94429	-0.02
Mof_C 	C 	0.60059	0.80193	0.93518	-0.051
Mof_H 	H 	0.614	0.792	0.9451	0.066
Mof_C 	C 	0.62509	0.72253	0.85153	-0.044
Mof_H 	H 	0.6208	0.7385	0.8412	0.046
Mof_C 	C 	0.63641	0.69887	0.8407	-0.068
Mof_H 	H 	0.6409	0.6976	0.8217	0.048
Mof_C 	C 	0.63709	0.6731	0.8876	-0.068
Mof_H 	H 	0.6416	0.6569	0.8977	0.046
Mof_C 	C 	0.62516	0.6981	0.8978	-0.044
Mof_H 	H 	0.6208	0.6997	0.9168	0.047
Mof_O 	O 	0.59675	0.36617	0.47304	-0.4
Mof_O 	O 	0.63132	0.33059	0.47214	-0.364
Mof_C 	C 	0.60643	0.34506	0.46534	0.27
Mof_C 	C 	0.5927	0.32661	0.44429	-0.02
Mof_C 	C 	0.60059	0.30193	0.43518	-0.051
Mof_H 	H 	0.614	0.292	0.4451	0.066
Mof_C 	C 	0.62509	0.22253	0.35153	-0.044
Mof_H 	H 	0.6208	0.2385	0.3412	0.046
Mof_C 	C 	0.63641	0.19887	0.3407	-0.068
Mof_H 	H 	0.6409	0.1976	0.3217	0.048
Mof_C 	C 	0.63709	0.1731	0.3876	-0.068
Mof_H 	H 	0.6416	0.1569	0.3977	0.046
Mof_C 	C 	0.62516	0.1981	0.3978	-0.044
Mof_H 	H 	0.6208	0.1997	0.4168	0.047
Mof_O 	O 	0.09675	0.86617	0.47304	-0.4
Mof_O 	O 	0.13132	0.83059	0.47214	-0.364
Mof_C 	C 	0.10643	0.84506	0.46534	0.27
Mof_C 	C 	0.0927	0.82661	0.44429	-0.02
Mof_C 	C 	0.10059	0.80193	0.43518	-0.051
Mof_H 	H 	0.114	0.792	0.4451	0.066
Mof_C 	C 	0.12509	0.72253	0.35153	-0.044
Mof_H 	H 	0.1208	0.7385	0.3412	0.046
Mof_C 	C 	0.13641	0.69887	0.3407	-0.068
Mof_H 	H 	0.1409	0.6976	0.3217	0.048
Mof_C 	C 	0.13709	0.6731	0.3876	-0.068
Mof_H 	H 	0.1416	0.6569	0.3977	0.046
Mof_C 	C 	0.12516	0.6981	0.3978	-0.044
Mof_H 	H 	0.1208	0.6997	0.4168	0.046
Mof_O 	O 	0.09675	0.36617	0.97304	-0.4
Mof_O 	O 	0.13132	0.33059	0.97214	-0.363
Mof_C 	C 	0.10643	0.34506	0.96534	0.27
Mof_C 	C 	0.0927	0.32661	0.94429	-0.02
Mof_C 	C 	0.10059	0.30193	0.93518	-0.051
Mof_H 	H 	0.114	0.292	0.9451	0.066
Mof_C 	C 	0.12509	0.22253	0.85153	-0.044
Mof_H 	H 	0.1208	0.2385	0.8412	0.046
Mof_C 	C 	0.13641	0.19887	0.8407	-0.068
Mof_H 	H 	0.1409	0.1976	0.8217	0.048
Mof_C 	C 	0.13709	0.1731	0.8876	-0.068
Mof_H 	H 	0.1416	0.1569	0.8977	0.046
Mof_C 	C 	0.12516	0.1981	0.8978	-0.044
Mof_H 	H 	0.1208	0.1997	0.9168	0.047
Mof_O 	O 	0.40325	0.13383	0.97304	-0.4
Mof_O 	O 	0.36868	0.16941	0.97214	-0.363
Mof_C 	C 	0.39357	0.15494	0.96534	0.27
Mof_C 	C 	0.4073	0.17339	0.94429	-0.02
Mof_C 	C 	0.39941	0.19807	0.93518	-0.051
Mof_H 	H 	0.386	0.208	0.9451	0.066
Mof_C 	C 	0.37491	0.27747	0.85153	-0.044
Mof_H 	H 	0.3792	0.2615	0.8412	0.046
Mof_C 	C 	0.36359	0.30113	0.8407	-0.068
Mof_H 	H 	0.3591	0.3024	0.8217	0.048
Mof_C 	C 	0.36291	0.3269	0.8876	-0.068
Mof_H 	H 	0.3584	0.3431	0.8977	0.046
Mof_C 	C 	0.37484	0.3019	0.8978	-0.044
Mof_H 	H 	0.3792	0.3003	0.9168	0.047
Mof_O 	O 	0.40325	0.63383	0.47304	-0.4
Mof_O 	O 	0.36868	0.66941	0.47214	-0.364
Mof_C 	C 	0.39357	0.65494	0.46534	0.27
Mof_C 	C 	0.4073	0.67339	0.44429	-0.02
Mof_C 	C 	0.39941	0.69807	0.43518	-0.051
Mof_H 	H 	0.386	0.708	0.4451	0.066
Mof_C 	C 	0.37491	0.77747	0.35153	-0.044
Mof_H 	H 	0.3792	0.7615	0.3412	0.046
Mof_C 	C 	0.36359	0.80113	0.3407	-0.068
Mof_H 	H 	0.3591	0.8024	0.3217	0.048
Mof_C 	C 	0.36291	0.8269	0.3876	-0.068
Mof_H 	H 	0.3584	0.8431	0.3977	0.046
Mof_C 	C 	0.37484	0.8019	0.3978	-0.044
Mof_H 	H 	0.3792	0.8003	0.4168	0.047
Mof_O 	O 	0.90325	0.13383	0.47304	-0.4
Mof_O 	O 	0.86868	0.16941	0.47214	-0.364
Mof_C 	C 	0.89357	0.15494	0.46534	0.27
Mof_C 	C 	0.9073	0.17339	0.44429	-0.02
Mof_C 	C 	0.89941	0.19807	0.43518	-0.051
Mof_H 	H 	0.886	0.208	0.4451	0.066
Mof_C 	C 	0.87491	0.27747	0.35153	-0.044
Mof_H 	H 	0.8792	0.2615	0.3412	0.046
Mof_C 	C 	0.86359	0.30113	0.3407	-0.068
Mof_H 	H 	0.8591	0.3024	0.3217	0.048
Mof_C 	C 	0.86291	0.3269	0.3876	-0.068
Mof_H 	H 	0.8584	0.3431	0.3977	0.046
Mof_C 	C 	0.87484	0.3019	0.3978	-0.044
Mof_H 	H 	0.8792	0.3003	0.4168	0.047
Mof_O 	O 	0.90325	0.63383	0.97304	-0.399
Mof_O 	O 	0.86868	0.66941	0.97214	-0.363
Mof_C 	C 	0.89357	0.65494	0.96534	0.27
Mof_C 	C 	0.9073	0.67339	0.94429	-0.02
Mof_C 	C 	0.89941	0.69807	0.93518	-0.051
Mof_H 	H 	0.886	0.708	0.9451	0.066
Mof_C 	C 	0.87491	0.77747	0.85153	-0.044
Mof_H 	H 	0.8792	0.7615	0.8412	0.046
Mof_C 	C 	0.86359	0.80113	0.8407	-0.068
Mof_H 	H 	0.8591	0.8024	0.8217	0.048
Mof_C 	C 	0.86291	0.8269	0.8876	-0.068
Mof_H 	H 	0.8584	0.8431	0.8977	0.046
Mof_C 	C 	0.87484	0.8019	0.8978	-0.044
Mof_H 	H 	0.8792	0.8003	0.9168	0.047
Mof_O 	O 	0.59675	0.13383	0.02696	-0.401
Mof_O 	O 	0.63132	0.16941	0.02786	-0.364
Mof_C 	C 	0.60643	0.15494	0.03466	0.27
Mof_C 	C 	0.5927	0.17339	0.05571	-0.021
Mof_C 	C 	0.60059	0.19807	0.06482	-0.051
Mof_H 	H 	0.614	0.208	0.0549	0.065
Mof_C 	C 	0.62509	0.27747	0.14847	-0.044
Mof_H 	H 	0.6208	0.2615	0.1588	0.046
Mof_C 	C 	0.63641	0.30113	0.1593	-0.068
Mof_H 	H 	0.6409	0.3024	0.1783	0.048
Mof_C 	C 	0.63709	0.3269	0.1124	-0.068
Mof_H 	H 	0.6416	0.3431	0.1023	0.046
Mof_C 	C 	0.62516	0.3019	0.1022	-0.044
Mof_H 	H 	0.6208	0.3003	0.0832	0.046
Mof_O 	O 	0.59675	0.63383	0.52696	-0.4
Mof_O 	O 	0.63132	0.66941	0.52786	-0.364
Mof_C 	C 	0.60643	0.65494	0.53466	0.27
Mof_C 	C 	0.5927	0.67339	0.55571	-0.02
Mof_C 	C 	0.60059	0.69807	0.56482	-0.051
Mof_H 	H 	0.614	0.708	0.5549	0.066
Mof_C 	C 	0.62509	0.77747	0.64847	-0.044
Mof_H 	H 	0.6208	0.7615	0.6588	0.046
Mof_C 	C 	0.63641	0.80113	0.6593	-0.068
Mof_H 	H 	0.6409	0.8024	0.6783	0.048
Mof_C 	C 	0.63709	0.8269	0.6124	-0.068
Mof_H 	H 	0.6416	0.8431	0.6023	0.046
Mof_C 	C 	0.62516	0.8019	0.6022	-0.044
Mof_H 	H 	0.6208	0.8003	0.5832	0.047
Mof_O 	O 	0.09675	0.13383	0.52696	-0.4
Mof_O 	O 	0.13132	0.16941	0.52786	-0.364
Mof_C 	C 	0.10643	0.15494	0.53466	0.27
Mof_C 	C 	0.0927	0.17339	0.55571	-0.02
Mof_C 	C 	0.10059	0.19807	0.56482	-0.051
Mof_H 	H 	0.114	0.208	0.5549	0.066
Mof_C 	C 	0.12509	0.27747	0.64847	-0.044
Mof_H 	H 	0.1208	0.2615	0.6588	0.046
Mof_C 	C 	0.13641	0.30113	0.6593	-0.068
Mof_H 	H 	0.1409	0.3024	0.6783	0.048
Mof_C 	C 	0.13709	0.3269	0.6124	-0.068
Mof_H 	H 	0.1416	0.3431	0.6023	0.046
Mof_C 	C 	0.12516	0.3019	0.6022	-0.044
Mof_H 	H 	0.1208	0.3003	0.5832	0.047
Mof_O 	O 	0.09675	0.63383	0.02696	-0.401
Mof_O 	O 	0.13132	0.66941	0.02786	-0.364
Mof_C 	C 	0.10643	0.65494	0.03466	0.27
Mof_C 	C 	0.0927	0.67339	0.05571	-0.021
Mof_C 	C 	0.10059	0.69807	0.06482	-0.051
Mof_H 	H 	0.114	0.708	0.0549	0.065
Mof_C 	C 	0.12509	0.77747	0.14847	-0.044
Mof_H 	H 	0.1208	0.7615	0.1588	0.046
Mof_C 	C 	0.13641	0.80113	0.1593	-0.068
Mof_H 	H 	0.1409	0.8024	0.1783	0.048
Mof_C 	C 	0.13709	0.8269	0.1124	-0.068
Mof_H 	H 	0.1416	0.8431	0.1023	0.046
Mof_C 	C 	0.12516	0.8019	0.1022	-0.044
Mof_H 	H 	0.1208	0.8003	0.0832	0.046
Mof_O 	O 	0.40325	0.86617	0.02696	-0.401
Mof_O 	O 	0.36868	0.83059	0.02786	-0.364
Mof_C 	C 	0.39357	0.84506	0.03466	0.27
Mof_C 	C 	0.4073	0.82661	0.05571	-0.021
Mof_C 	C 	0.39941	0.80193	0.06482	-0.051
Mof_H 	H 	0.386	0.792	0.0549	0.065
Mof_C 	C 	0.37491	0.72253	0.14847	-0.044
Mof_H 	H 	0.3792	0.7385	0.1588	0.046
Mof_C 	C 	0.36359	0.69887	0.1593	-0.068
Mof_H 	H 	0.3591	0.6976	0.1783	0.048
Mof_C 	C 	0.36291	0.6731	0.1124	-0.068
Mof_H 	H 	0.3584	0.6569	0.1023	0.046
Mof_C 	C 	0.37484	0.6981	0.1022	-0.044
Mof_H 	H 	0.3792	0.6997	0.0832	0.046
Mof_O 	O 	0.40325	0.36617	0.52696	-0.4
Mof_O 	O 	0.36868	0.33059	0.52786	-0.364
Mof_C 	C 	0.39357	0.34506	0.53466	0.27
Mof_C 	C 	0.4073	0.32661	0.55571	-0.02
Mof_C 	C 	0.39941	0.30193	0.56482	-0.051
Mof_H 	H 	0.386	0.292	0.5549	0.066
Mof_C 	C 	0.37491	0.22253	0.64847	-0.044
Mof_H 	H 	0.3792	0.2385	0.6588	0.046
Mof_C 	C 	0.36359	0.19887	0.6593	-0.068
Mof_H 	H 	0.3591	0.1976	0.6783	0.048
Mof_C 	C 	0.36291	0.1731	0.6124	-0.068
Mof_H 	H 	0.3584	0.1569	0.6023	0.046
Mof_C 	C 	0.37484	0.1981	0.6022	-0.044
Mof_H 	H 	0.3792	0.1997	0.5832	0.047
Mof_O 	O 	0.90325	0.86617	0.52696	-0.4
Mof_O 	O 	0.86868	0.83059	0.52786	-0.364
Mof_C 	C 	0.89357	0.84506	0.53466	0.27
Mof_C 	C 	0.9073	0.82661	0.55571	-0.02
Mof_C 	C 	0.89941	0.80193	0.56482	-0.051
Mof_H 	H 	0.886	0.792	0.5549	0.066
Mof_C 	C 	0.87491	0.72253	0.64847	-0.044
Mof_H 	H 	0.8792	0.7385	0.6588	0.046
Mof_C 	C 	0.86359	0.69887	0.6593	-0.068
Mof_H 	H 	0.8591	0.6976	0.6783	0.048
Mof_C 	C 	0.86291	0.6731	0.6124	-0.068
Mof_H 	H 	0.8584	0.6569	0.6023	0.046
Mof_C 	C 	0.87484	0.6981	0.6022	-0.044
Mof_H 	H 	0.8792	0.6997	0.5832	0.047
Mof_O 	O 	0.90325	0.36617	0.02696	-0.401
Mof_O 	O 	0.86868	0.33059	0.02786	-0.364
Mof_C 	C 	0.89357	0.34506	0.03466	0.27
Mof_C 	C 	0.9073	0.32661	0.05571	-0.02
Mof_C 	C 	0.89941	0.30193	0.06482	-0.051
Mof_H 	H 	0.886	0.292	0.0549	0.066
Mof_C 	C 	0.87491	0.22253	0.14847	-0.044
Mof_H 	H 	0.8792	0.2385	0.1588	0.046
Mof_C 	C 	0.86359	0.19887	0.1593	-0.068
Mof_H 	H 	0.8591	0.1976	0.1783	0.048
Mof_C 	C 	0.86291	0.1731	0.1124	-0.068
Mof_H 	H 	0.8584	0.1569	0.1023	0.046
Mof_C 	C 	0.87484	0.1981	0.1022	-0.044
Mof_H 	H 	0.8792	0.1997	0.0832	0.046
Mof_O 	O 	0.86617	0.02696	0.40325	-0.401
Mof_O 	O 	0.83059	0.02786	0.36868	-0.364
Mof_C 	C 	0.84506	0.03466	0.39357	0.27
Mof_C 	C 	0.82661	0.05571	0.4073	-0.021
Mof_C 	C 	0.80193	0.06482	0.39941	-0.051
Mof_H 	H 	0.792	0.0549	0.386	0.065
Mof_C 	C 	0.72253	0.14847	0.37491	-0.044
Mof_H 	H 	0.7385	0.1588	0.3792	0.046
Mof_C 	C 	0.69887	0.1593	0.36359	-0.068
Mof_H 	H 	0.6976	0.1783	0.3591	0.048
Mof_C 	C 	0.6731	0.1124	0.36291	-0.068
Mof_H 	H 	0.6569	0.1023	0.3584	0.046
Mof_C 	C 	0.6981	0.1022	0.37484	-0.044
Mof_H 	H 	0.6997	0.0832	0.3792	0.046
Mof_O 	O 	0.86617	0.52696	0.90325	-0.4
Mof_O 	O 	0.83059	0.52786	0.86868	-0.364
Mof_C 	C 	0.84506	0.53466	0.89357	0.27
Mof_C 	C 	0.82661	0.55571	0.9073	-0.02
Mof_C 	C 	0.80193	0.56482	0.89941	-0.051
Mof_H 	H 	0.792	0.5549	0.886	0.066
Mof_C 	C 	0.72253	0.64847	0.87491	-0.044
Mof_H 	H 	0.7385	0.6588	0.8792	0.046
Mof_C 	C 	0.69887	0.6593	0.86359	-0.068
Mof_H 	H 	0.6976	0.6783	0.8591	0.048
Mof_C 	C 	0.6731	0.6124	0.86291	-0.068
Mof_H 	H 	0.6569	0.6023	0.8584	0.046
Mof_C 	C 	0.6981	0.6022	0.87484	-0.044
Mof_H 	H 	0.6997	0.5832	0.8792	0.047
Mof_O 	O 	0.36617	0.02696	0.90325	-0.401
Mof_O 	O 	0.33059	0.02786	0.86868	-0.364
Mof_C 	C 	0.34506	0.03466	0.89357	0.27
Mof_C 	C 	0.32661	0.05571	0.9073	-0.02
Mof_C 	C 	0.30193	0.06482	0.89941	-0.051
Mof_H 	H 	0.292	0.0549	0.886	0.066
Mof_C 	C 	0.22253	0.14847	0.87491	-0.044
Mof_H 	H 	0.2385	0.1588	0.8792	0.046
Mof_C 	C 	0.19887	0.1593	0.86359	-0.068
Mof_H 	H 	0.1976	0.1783	0.8591	0.048
Mof_C 	C 	0.1731	0.1124	0.86291	-0.068
Mof_H 	H 	0.1569	0.1023	0.8584	0.046
Mof_C 	C 	0.1981	0.1022	0.87484	-0.044
Mof_H 	H 	0.1997	0.0832	0.8792	0.046
Mof_O 	O 	0.36617	0.52696	0.40325	-0.4
Mof_O 	O 	0.33059	0.52786	0.36868	-0.364
Mof_C 	C 	0.34506	0.53466	0.39357	0.27
Mof_C 	C 	0.32661	0.55571	0.4073	-0.02
Mof_C 	C 	0.30193	0.56482	0.39941	-0.051
Mof_H 	H 	0.292	0.5549	0.386	0.066
Mof_C 	C 	0.22253	0.64847	0.37491	-0.044
Mof_H 	H 	0.2385	0.6588	0.3792	0.046
Mof_C 	C 	0.19887	0.6593	0.36359	-0.068
Mof_H 	H 	0.1976	0.6783	0.3591	0.048
Mof_C 	C 	0.1731	0.6124	0.36291	-0.068
Mof_H 	H 	0.1569	0.6023	0.3584	0.046
Mof_C 	C 	0.1981	0.6022	0.37484	-0.044
Mof_H 	H 	0.1997	0.5832	0.3792	0.047
Mof_O 	O 	0.13383	0.02696	0.59675	-0.401
Mof_O 	O 	0.16941	0.02786	0.63132	-0.364
Mof_C 	C 	0.15494	0.03466	0.60643	0.27
Mof_C 	C 	0.17339	0.05571	0.5927	-0.021
Mof_C 	C 	0.19807	0.06482	0.60059	-0.051
Mof_H 	H 	0.208	0.0549	0.614	0.065
Mof_C 	C 	0.27747	0.14847	0.62509	-0.044
Mof_H 	H 	0.2615	0.1588	0.6208	0.046
Mof_C 	C 	0.30113	0.1593	0.63641	-0.068
Mof_H 	H 	0.3024	0.1783	0.6409	0.048
Mof_C 	C 	0.3269	0.1124	0.63709	-0.068
Mof_H 	H 	0.3431	0.1023	0.6416	0.046
Mof_C 	C 	0.3019	0.1022	0.62516	-0.044
Mof_H 	H 	0.3003	0.0832	0.6208	0.046
Mof_O 	O 	0.13383	0.52696	0.09675	-0.4
Mof_O 	O 	0.16941	0.52786	0.13132	-0.364
Mof_C 	C 	0.15494	0.53466	0.10643	0.27
Mof_C 	C 	0.17339	0.55571	0.0927	-0.02
Mof_C 	C 	0.19807	0.56482	0.10059	-0.051
Mof_H 	H 	0.208	0.5549	0.114	0.066
Mof_C 	C 	0.27747	0.64847	0.12509	-0.044
Mof_H 	H 	0.2615	0.6588	0.1208	0.046
Mof_C 	C 	0.30113	0.6593	0.13641	-0.068
Mof_H 	H 	0.3024	0.6783	0.1409	0.048
Mof_C 	C 	0.3269	0.6124	0.13709	-0.068
Mof_H 	H 	0.3431	0.6023	0.1416	0.046
Mof_C 	C 	0.3019	0.6022	0.12516	-0.044
Mof_H 	H 	0.3003	0.5832	0.1208	0.047
Mof_O 	O 	0.63383	0.02696	0.09675	-0.401
Mof_O 	O 	0.66941	0.02786	0.13132	-0.364
Mof_C 	C 	0.65494	0.03466	0.10643	0.27
Mof_C 	C 	0.67339	0.05571	0.0927	-0.021
Mof_C 	C 	0.69807	0.06482	0.10059	-0.051
Mof_H 	H 	0.708	0.0549	0.114	0.065
Mof_C 	C 	0.77747	0.14847	0.12509	-0.044
Mof_H 	H 	0.7615	0.1588	0.1208	0.046
Mof_C 	C 	0.80113	0.1593	0.13641	-0.068
Mof_H 	H 	0.8024	0.1783	0.1409	0.048
Mof_C 	C 	0.8269	0.1124	0.13709	-0.068
Mof_H 	H 	0.8431	0.1023	0.1416	0.046
Mof_C 	C 	0.8019	0.1022	0.12516	-0.044
Mof_H 	H 	0.8003	0.0832	0.1208	0.046
Mof_O 	O 	0.63383	0.52696	0.59675	-0.4
Mof_O 	O 	0.66941	0.52786	0.63132	-0.364
Mof_C 	C 	0.65494	0.53466	0.60643	0.27
Mof_C 	C 	0.67339	0.55571	0.5927	-0.02
Mof_C 	C 	0.69807	0.56482	0.60059	-0.051
Mof_H 	H 	0.708	0.5549	0.614	0.066
Mof_C 	C 	0.77747	0.64847	0.62509	-0.044
Mof_H 	H 	0.7615	0.6588	0.6208	0.046
Mof_C 	C 	0.80113	0.6593	0.63641	-0.068
Mof_H 	H 	0.8024	0.6783	0.6409	0.048
Mof_C 	C 	0.8269	0.6124	0.63709	-0.068
Mof_H 	H 	0.8431	0.6023	0.6416	0.046
Mof_C 	C 	0.8019	0.6022	0.62516	-0.044
Mof_H 	H 	0.8003	0.5832	0.6208	0.047
Mof_O 	O 	0.13383	0.97304	0.40325	-0.4
Mof_O 	O 	0.16941	0.97214	0.36868	-0.363
Mof_C 	C 	0.15494	0.96534	0.39357	0.27
Mof_C 	C 	0.17339	0.94429	0.4073	-0.02
Mof_C 	C 	0.19807	0.93518	0.39941	-0.051
Mof_H 	H 	0.208	0.9451	0.386	0.066
Mof_C 	C 	0.27747	0.85153	0.37491	-0.044
Mof_H 	H 	0.2615	0.8412	0.3792	0.046
Mof_C 	C 	0.30113	0.8407	0.36359	-0.068
Mof_H 	H 	0.3024	0.8217	0.3591	0.048
Mof_C 	C 	0.3269	0.8876	0.36291	-0.068
Mof_H 	H 	0.3431	0.8977	0.3584	0.046
Mof_C 	C 	0.3019	0.8978	0.37484	-0.044
Mof_H 	H 	0.3003	0.9168	0.3792	0.047
Mof_O 	O 	0.13383	0.47304	0.90325	-0.4
Mof_O 	O 	0.16941	0.47214	0.86868	-0.364
Mof_C 	C 	0.15494	0.46534	0.89357	0.27
Mof_C 	C 	0.17339	0.44429	0.9073	-0.02
Mof_C 	C 	0.19807	0.43518	0.89941	-0.051
Mof_H 	H 	0.208	0.4451	0.886	0.066
Mof_C 	C 	0.27747	0.35153	0.87491	-0.044
Mof_H 	H 	0.2615	0.3412	0.8792	0.046
Mof_C 	C 	0.30113	0.3407	0.86359	-0.068
Mof_H 	H 	0.3024	0.3217	0.8591	0.048
Mof_C 	C 	0.3269	0.3876	0.86291	-0.068
Mof_H 	H 	0.3431	0.3977	0.8584	0.046
Mof_C 	C 	0.3019	0.3978	0.87484	-0.044
Mof_H 	H 	0.3003	0.4168	0.8792	0.047
Mof_O 	O 	0.63383	0.97304	0.90325	-0.399
Mof_O 	O 	0.66941	0.97214	0.86868	-0.363
Mof_C 	C 	0.65494	0.96534	0.89357	0.27
Mof_C 	C 	0.67339	0.94429	0.9073	-0.02
Mof_C 	C 	0.69807	0.93518	0.89941	-0.051
Mof_H 	H 	0.708	0.9451	0.886	0.066
Mof_C 	C 	0.77747	0.85153	0.87491	-0.044
Mof_H 	H 	0.7615	0.8412	0.8792	0.046
Mof_C 	C 	0.80113	0.8407	0.86359	-0.068
Mof_H 	H 	0.8024	0.8217	0.8591	0.048
Mof_C 	C 	0.8269	0.8876	0.86291	-0.068
Mof_H 	H 	0.8431	0.8977	0.8584	0.046
Mof_C 	C 	0.8019	0.8978	0.87484	-0.044
Mof_H 	H 	0.8003	0.9168	0.8792	0.047
Mof_O 	O 	0.63383	0.47304	0.40325	-0.4
Mof_O 	O 	0.66941	0.47214	0.36868	-0.364
Mof_C 	C 	0.65494	0.46534	0.39357	0.27
Mof_C 	C 	0.67339	0.44429	0.4073	-0.02
Mof_C 	C 	0.69807	0.43518	0.39941	-0.051
Mof_H 	H 	0.708	0.4451	0.386	0.066
Mof_C 	C 	0.77747	0.35153	0.37491	-0.044
Mof_H 	H 	0.7615	0.3412	0.3792	0.046
Mof_C 	C 	0.80113	0.3407	0.36359	-0.068
Mof_H 	H 	0.8024	0.3217	0.3591	0.048
Mof_C 	C 	0.8269	0.3876	0.36291	-0.068
Mof_H 	H 	0.8431	0.3977	0.3584	0.046
Mof_C 	C 	0.8019	0.3978	0.37484	-0.044
Mof_H 	H 	0.8003	0.4168	0.3792	0.047
Mof_O 	O 	0.86617	0.97304	0.59675	-0.399
Mof_O 	O 	0.83059	0.97214	0.63132	-0.363
Mof_C 	C 	0.84506	0.96534	0.60643	0.27
Mof_C 	C 	0.82661	0.94429	0.5927	-0.02
Mof_C 	C 	0.80193	0.93518	0.60059	-0.051
Mof_H 	H 	0.792	0.9451	0.614	0.066
Mof_C 	C 	0.72253	0.85153	0.62509	-0.044
Mof_H 	H 	0.7385	0.8412	0.6208	0.046
Mof_C 	C 	0.69887	0.8407	0.63641	-0.068
Mof_H 	H 	0.6976	0.8217	0.6409	0.048
Mof_C 	C 	0.6731	0.8876	0.63709	-0.068
Mof_H 	H 	0.6569	0.8977	0.6416	0.046
Mof_C 	C 	0.6981	0.8978	0.62516	-0.044
Mof_H 	H 	0.6997	0.9168	0.6208	0.047
Mof_O 	O 	0.86617	0.47304	0.09675	-0.4
Mof_O 	O 	0.83059	0.47214	0.13132	-0.364
Mof_C 	C 	0.84506	0.46534	0.10643	0.27
Mof_C 	C 	0.82661	0.44429	0.0927	-0.02
Mof_C 	C 	0.80193	0.43518	0.10059	-0.051
Mof_H 	H 	0.792	0.4451	0.114	0.066
Mof_C 	C 	0.72253	0.35153	0.12509	-0.044
Mof_H 	H 	0.7385	0.3412	0.1208	0.046
Mof_C 	C 	0.69887	0.3407	0.13641	-0.068
Mof_H 	H 	0.6976	0.3217	0.1409	0.048
Mof_C 	C 	0.6731	0.3876	0.13709	-0.068
Mof_H 	H 	0.6569	0.3977	0.1416	0.046
Mof_C 	C 	0.6981	0.3978	0.12516	-0.044
Mof_H 	H 	0.6997	0.4168	0.1208	0.046
Mof_O 	O 	0.36617	0.97304	0.09675	-0.4
Mof_O 	O 	0.33059	0.97214	0.13132	-0.363
Mof_C 	C 	0.34506	0.96534	0.10643	0.27
Mof_C 	C 	0.32661	0.94429	0.0927	-0.02
Mof_C 	C 	0.30193	0.93518	0.10059	-0.051
Mof_H 	H 	0.292	0.9451	0.114	0.066
Mof_C 	C 	0.22253	0.85153	0.12509	-0.044
Mof_H 	H 	0.2385	0.8412	0.1208	0.046
Mof_C 	C 	0.19887	0.8407	0.13641	-0.068
Mof_H 	H 	0.1976	0.8217	0.1409	0.048
Mof_C 	C 	0.1731	0.8876	0.13709	-0.068
Mof_H 	H 	0.1569	0.8977	0.1416	0.046
Mof_C 	C 	0.1981	0.8978	0.12516	-0.044
Mof_H 	H 	0.1997	0.9168	0.1208	0.047
Mof_O 	O 	0.36617	0.47304	0.59675	-0.4
Mof_O 	O 	0.33059	0.47214	0.63132	-0.364
Mof_C 	C 	0.34506	0.46534	0.60643	0.27
Mof_C 	C 	0.32661	0.44429	0.5927	-0.02
Mof_C 	C 	0.30193	0.43518	0.60059	-0.051
Mof_H 	H 	0.292	0.4451	0.614	0.066
Mof_C 	C 	0.22253	0.35153	0.62509	-0.044
Mof_H 	H 	0.2385	0.3412	0.6208	0.046
Mof_C 	C 	0.19887	0.3407	0.63641	-0.068
Mof_H 	H 	0.1976	0.3217	0.6409	0.048
Mof_C 	C 	0.1731	0.3876	0.63709	-0.068
Mof_H 	H 	0.1569	0.3977	0.6416	0.046
Mof_C 	C 	0.1981	0.3978	0.62516	-0.044
Mof_H 	H 	0.1997	0.4168	0.6208	0.047
Mof_O 	O 	0.02696	0.59675	0.13383	-0.401
Mof_O 	O 	0.02786	0.63132	0.16941	-0.364
Mof_C 	C 	0.03466	0.60643	0.15494	0.27
Mof_C 	C 	0.05571	0.5927	0.17339	-0.021
Mof_C 	C 	0.06482	0.60059	0.19807	-0.051
Mof_H 	H 	0.0549	0.614	0.208	0.065
Mof_C 	C 	0.14847	0.62509	0.27747	-0.044
Mof_H 	H 	0.1588	0.6208	0.2615	0.046
Mof_C 	C 	0.1593	0.63641	0.30113	-0.068
Mof_H 	H 	0.1783	0.6409	0.3024	0.048
Mof_C 	C 	0.1124	0.63709	0.3269	-0.068
Mof_H 	H 	0.1023	0.6416	0.3431	0.046
Mof_C 	C 	0.1022	0.62516	0.3019	-0.044
Mof_H 	H 	0.0832	0.6208	0.3003	0.046
Mof_O 	O 	0.02696	0.09675	0.63383	-0.401
Mof_O 	O 	0.02786	0.13132	0.66941	-0.364
Mof_C 	C 	0.03466	0.10643	0.65494	0.27
Mof_C 	C 	0.05571	0.0927	0.67339	-0.021
Mof_C 	C 	0.06482	0.10059	0.69807	-0.051
Mof_H 	H 	0.0549	0.114	0.708	0.065
Mof_C 	C 	0.14847	0.12509	0.77747	-0.044
Mof_H 	H 	0.1588	0.1208	0.7615	0.046
Mof_C 	C 	0.1593	0.13641	0.80113	-0.068
Mof_H 	H 	0.1783	0.1409	0.8024	0.048
Mof_C 	C 	0.1124	0.13709	0.8269	-0.068
Mof_H 	H 	0.1023	0.1416	0.8431	0.046
Mof_C 	C 	0.1022	0.12516	0.8019	-0.044
Mof_H 	H 	0.0832	0.1208	0.8003	0.046
Mof_O 	O 	0.52696	0.59675	0.63383	-0.4
Mof_O 	O 	0.52786	0.63132	0.66941	-0.364
Mof_C 	C 	0.53466	0.60643	0.65494	0.27
Mof_C 	C 	0.55571	0.5927	0.67339	-0.02
Mof_C 	C 	0.56482	0.60059	0.69807	-0.051
Mof_H 	H 	0.5549	0.614	0.708	0.066
Mof_C 	C 	0.64847	0.62509	0.77747	-0.044
Mof_H 	H 	0.6588	0.6208	0.7615	0.046
Mof_C 	C 	0.6593	0.63641	0.80113	-0.068
Mof_H 	H 	0.6783	0.6409	0.8024	0.048
Mof_C 	C 	0.6124	0.63709	0.8269	-0.068
Mof_H 	H 	0.6023	0.6416	0.8431	0.046
Mof_C 	C 	0.6022	0.62516	0.8019	-0.044
Mof_H 	H 	0.5832	0.6208	0.8003	0.047
Mof_O 	O 	0.52696	0.09675	0.13383	-0.4
Mof_O 	O 	0.52786	0.13132	0.16941	-0.364
Mof_C 	C 	0.53466	0.10643	0.15494	0.27
Mof_C 	C 	0.55571	0.0927	0.17339	-0.02
Mof_C 	C 	0.56482	0.10059	0.19807	-0.051
Mof_H 	H 	0.5549	0.114	0.208	0.066
Mof_C 	C 	0.64847	0.12509	0.27747	-0.044
Mof_H 	H 	0.6588	0.1208	0.2615	0.046
Mof_C 	C 	0.6593	0.13641	0.30113	-0.068
Mof_H 	H 	0.6783	0.1409	0.3024	0.048
Mof_C 	C 	0.6124	0.13709	0.3269	-0.068
Mof_H 	H 	0.6023	0.1416	0.3431	0.046
Mof_C 	C 	0.6022	0.12516	0.3019	-0.044
Mof_H 	H 	0.5832	0.1208	0.3003	0.047
Mof_O 	O 	0.02696	0.40325	0.86617	-0.401
Mof_O 	O 	0.02786	0.36868	0.83059	-0.364
Mof_C 	C 	0.03466	0.39357	0.84506	0.27
Mof_C 	C 	0.05571	0.4073	0.82661	-0.021
Mof_C 	C 	0.06482	0.39941	0.80193	-0.051
Mof_H 	H 	0.0549	0.386	0.792	0.065
Mof_C 	C 	0.14847	0.37491	0.72253	-0.044
Mof_H 	H 	0.1588	0.3792	0.7385	0.046
Mof_C 	C 	0.1593	0.36359	0.69887	-0.068
Mof_H 	H 	0.1783	0.3591	0.6976	0.048
Mof_C 	C 	0.1124	0.36291	0.6731	-0.068
Mof_H 	H 	0.1023	0.3584	0.6569	0.046
Mof_C 	C 	0.1022	0.37484	0.6981	-0.044
Mof_H 	H 	0.0832	0.3792	0.6997	0.046
Mof_O 	O 	0.02696	0.90325	0.36617	-0.401
Mof_O 	O 	0.02786	0.86868	0.33059	-0.364
Mof_C 	C 	0.03466	0.89357	0.34506	0.27
Mof_C 	C 	0.05571	0.9073	0.32661	-0.02
Mof_C 	C 	0.06482	0.89941	0.30193	-0.051
Mof_H 	H 	0.0549	0.886	0.292	0.066
Mof_C 	C 	0.14847	0.87491	0.22253	-0.044
Mof_H 	H 	0.1588	0.8792	0.2385	0.046
Mof_C 	C 	0.1593	0.86359	0.19887	-0.068
Mof_H 	H 	0.1783	0.8591	0.1976	0.048
Mof_C 	C 	0.1124	0.86291	0.1731	-0.068
Mof_H 	H 	0.1023	0.8584	0.1569	0.046
Mof_C 	C 	0.1022	0.87484	0.1981	-0.044
Mof_H 	H 	0.0832	0.8792	0.1997	0.046
Mof_O 	O 	0.52696	0.40325	0.36617	-0.4
Mof_O 	O 	0.52786	0.36868	0.33059	-0.364
Mof_C 	C 	0.53466	0.39357	0.34506	0.27
Mof_C 	C 	0.55571	0.4073	0.32661	-0.02
Mof_C 	C 	0.56482	0.39941	0.30193	-0.051
Mof_H 	H 	0.5549	0.386	0.292	0.066
Mof_C 	C 	0.64847	0.37491	0.22253	-0.044
Mof_H 	H 	0.6588	0.3792	0.2385	0.046
Mof_C 	C 	0.6593	0.36359	0.19887	-0.068
Mof_H 	H 	0.6783	0.3591	0.1976	0.048
Mof_C 	C 	0.6124	0.36291	0.1731	-0.068
Mof_H 	H 	0.6023	0.3584	0.1569	0.046
Mof_C 	C 	0.6022	0.37484	0.1981	-0.044
Mof_H 	H 	0.5832	0.3792	0.1997	0.047
Mof_O 	O 	0.52696	0.90325	0.86617	-0.4
Mof_O 	O 	0.52786	0.86868	0.83059	-0.364
Mof_C 	C 	0.53466	0.89357	0.84506	0.27
Mof_C 	C 	0.55571	0.9073	0.82661	-0.02
Mof_C 	C 	0.56482	0.89941	0.80193	-0.051
Mof_H 	H 	0.5549	0.886	0.792	0.066
Mof_C 	C 	0.64847	0.87491	0.72253	-0.044
Mof_H 	H 	0.6588	0.8792	0.7385	0.046
Mof_C 	C 	0.6593	0.86359	0.69887	-0.068
Mof_H 	H 	0.6783	0.8591	0.6976	0.048
Mof_C 	C 	0.6124	0.86291	0.6731	-0.068
Mof_H 	H 	0.6023	0.8584	0.6569	0.046
Mof_C 	C 	0.6022	0.87484	0.6981	-0.044
Mof_H 	H 	0.5832	0.8792	0.6997	0.047
Mof_O 	O 	0.97304	0.59675	0.86617	-0.399
Mof_O 	O 	0.97214	0.63132	0.83059	-0.363
Mof_C 	C 	0.96534	0.60643	0.84506	0.27
Mof_C 	C 	0.94429	0.5927	0.82661	-0.02
Mof_C 	C 	0.93518	0.60059	0.80193	-0.051
Mof_H 	H 	0.9451	0.614	0.792	0.066
Mof_C 	C 	0.85153	0.62509	0.72253	-0.044
Mof_H 	H 	0.8412	0.6208	0.7385	0.046
Mof_C 	C 	0.8407	0.63641	0.69887	-0.068
Mof_H 	H 	0.8217	0.6409	0.6976	0.048
Mof_C 	C 	0.8876	0.63709	0.6731	-0.068
Mof_H 	H 	0.8977	0.6416	0.6569	0.046
Mof_C 	C 	0.8978	0.62516	0.6981	-0.044
Mof_H 	H 	0.9168	0.6208	0.6997	0.047
Mof_O 	O 	0.97304	0.09675	0.36617	-0.4
Mof_O 	O 	0.97214	0.13132	0.33059	-0.363
Mof_C 	C 	0.96534	0.10643	0.34506	0.27
Mof_C 	C 	0.94429	0.0927	0.32661	-0.02
Mof_C 	C 	0.93518	0.10059	0.30193	-0.051
Mof_H 	H 	0.9451	0.114	0.292	0.066
Mof_C 	C 	0.85153	0.12509	0.22253	-0.044
Mof_H 	H 	0.8412	0.1208	0.2385	0.046
Mof_C 	C 	0.8407	0.13641	0.19887	-0.068
Mof_H 	H 	0.8217	0.1409	0.1976	0.048
Mof_C 	C 	0.8876	0.13709	0.1731	-0.068
Mof_H 	H 	0.8977	0.1416	0.1569	0.046
Mof_C 	C 	0.8978	0.12516	0.1981	-0.044
Mof_H 	H 	0.9168	0.1208	0.1997	0.047
Mof_O 	O 	0.47304	0.59675	0.36617	-0.4
Mof_O 	O 	0.47214	0.63132	0.33059	-0.364
Mof_C 	C 	0.46534	0.60643	0.34506	0.27
Mof_C 	C 	0.44429	0.5927	0.32661	-0.02
Mof_C 	C 	0.43518	0.60059	0.30193	-0.051
Mof_H 	H 	0.4451	0.614	0.292	0.066
Mof_C 	C 	0.35153	0.62509	0.22253	-0.044
Mof_H 	H 	0.3412	0.6208	0.2385	0.046
Mof_C 	C 	0.3407	0.63641	0.19887	-0.068
Mof_H 	H 	0.3217	0.6409	0.1976	0.048
Mof_C 	C 	0.3876	0.63709	0.1731	-0.068
Mof_H 	H 	0.3977	0.6416	0.1569	0.046
Mof_C 	C 	0.3978	0.62516	0.1981	-0.044
Mof_H 	H 	0.4168	0.6208	0.1997	0.047
Mof_O 	O 	0.47304	0.09675	0.86617	-0.4
Mof_O 	O 	0.47214	0.13132	0.83059	-0.364
Mof_C 	C 	0.46534	0.10643	0.84506	0.27
Mof_C 	C 	0.44429	0.0927	0.82661	-0.02
Mof_C 	C 	0.43518	0.10059	0.80193	-0.051
Mof_H 	H 	0.4451	0.114	0.792	0.066
Mof_C 	C 	0.35153	0.12509	0.72253	-0.044
Mof_H 	H 	0.3412	0.1208	0.7385	0.046
Mof_C 	C 	0.3407	0.13641	0.69887	-0.068
Mof_H 	H 	0.3217	0.1409	0.6976	0.048
Mof_C 	C 	0.3876	0.13709	0.6731	-0.068
Mof_H 	H 	0.3977	0.1416	0.6569	0.046
Mof_C 	C 	0.3978	0.12516	0.6981	-0.044
Mof_H 	H 	0.4168	0.1208	0.6997	0.046
Mof_O 	O 	0.97304	0.40325	0.13383	-0.4
Mof_O 	O 	0.97214	0.36868	0.16941	-0.363
Mof_C 	C 	0.96534	0.39357	0.15494	0.27
Mof_C 	C 	0.94429	0.4073	0.17339	-0.02
Mof_C 	C 	0.93518	0.39941	0.19807	-0.051
Mof_H 	H 	0.9451	0.386	0.208	0.066
Mof_C 	C 	0.85153	0.37491	0.27747	-0.044
Mof_H 	H 	0.8412	0.3792	0.2615	0.046
Mof_C 	C 	0.8407	0.36359	0.30113	-0.068
Mof_H 	H 	0.8217	0.3591	0.3024	0.048
Mof_C 	C 	0.8876	0.36291	0.3269	-0.068
Mof_H 	H 	0.8977	0.3584	0.3431	0.046
Mof_C 	C 	0.8978	0.37484	0.3019	-0.044
Mof_H 	H 	0.9168	0.3792	0.3003	0.047
Mof_O 	O 	0.97304	0.90325	0.63383	-0.399
Mof_O 	O 	0.97214	0.86868	0.66941	-0.363
Mof_C 	C 	0.96534	0.89357	0.65494	0.27
Mof_C 	C 	0.94429	0.9073	0.67339	-0.02
Mof_C 	C 	0.93518	0.89941	0.69807	-0.051
Mof_H 	H 	0.9451	0.886	0.708	0.066
Mof_C 	C 	0.85153	0.87491	0.77747	-0.044
Mof_H 	H 	0.8412	0.8792	0.7615	0.046
Mof_C 	C 	0.8407	0.86359	0.80113	-0.068
Mof_H 	H 	0.8217	0.8591	0.8024	0.048
Mof_C 	C 	0.8876	0.86291	0.8269	-0.068
Mof_H 	H 	0.8977	0.8584	0.8431	0.046
Mof_C 	C 	0.8978	0.87484	0.8019	-0.044
Mof_H 	H 	0.9168	0.8792	0.8003	0.047
Mof_O 	O 	0.47304	0.40325	0.63383	-0.4
Mof_O 	O 	0.47214	0.36868	0.66941	-0.364
Mof_C 	C 	0.46534	0.39357	0.65494	0.27
Mof_C 	C 	0.44429	0.4073	0.67339	-0.02
Mof_C 	C 	0.43518	0.39941	0.69807	-0.051
Mof_H 	H 	0.4451	0.386	0.708	0.066
Mof_C 	C 	0.35153	0.37491	0.77747	-0.044
Mof_H 	H 	0.3412	0.3792	0.7615	0.046
Mof_C 	C 	0.3407	0.36359	0.80113	-0.068
Mof_H 	H 	0.3217	0.3591	0.8024	0.048
Mof_C 	C 	0.3876	0.36291	0.8269	-0.068
Mof_H 	H 	0.3977	0.3584	0.8431	0.046
Mof_C 	C 	0.3978	0.37484	0.8019	-0.044
Mof_H 	H 	0.4168	0.3792	0.8003	0.047
Mof_O 	O 	0.47304	0.90325	0.13383	-0.4
Mof_O 	O 	0.47214	0.86868	0.16941	-0.364
Mof_C 	C 	0.46534	0.89357	0.15494	0.27
Mof_C 	C 	0.44429	0.9073	0.17339	-0.02
Mof_C 	C 	0.43518	0.89941	0.19807	-0.051
Mof_H 	H 	0.4451	0.886	0.208	0.066
Mof_C 	C 	0.35153	0.87491	0.27747	-0.044
Mof_H 	H 	0.3412	0.8792	0.2615	0.046
Mof_C 	C 	0.3407	0.86359	0.30113	-0.068
Mof_H 	H 	0.3217	0.8591	0.3024	0.048
Mof_C 	C 	0.3876	0.86291	0.3269	-0.068
Mof_H 	H 	0.3977	0.8584	0.3431	0.046
Mof_C 	C 	0.3978	0.87484	0.3019	-0.044
Mof_H 	H 	0.4168	0.8792	0.3003	0.047
Mof_Cu	Cu	0.15331	0.34669	-0	0.903
Mof_Cu	Cu	0.11439	0.38561	-0	0.932
Mof_Cu	Cu	0.15331	0.84669	0.5	0.903
Mof_Cu	Cu	0.11439	0.88561	0.5	0.933
Mof_Cu	Cu	0.84669	0.65331	-0	0.903
Mof_Cu	Cu	0.88561	0.61439	-0	0.933
Mof_Cu	Cu	0.84669	0.15331	0.5	0.903
Mof_Cu	Cu	0.88561	0.11439	0.5	0.933
Mof_Cu	Cu	0.34669	0.15331	-0	0.903
Mof_Cu	Cu	0.38561	0.11439	-0	0.932
Mof_Cu	Cu	0.84669	0.34669	-0	0.903
Mof_Cu	Cu	0.88561	0.38561	-0	0.933
Mof_Cu	Cu	0.84669	0.84669	0.5	0.903
Mof_Cu	Cu	0.88561	0.88561	0.5	0.933
Mof_Cu	Cu	0.34669	0.34669	0.5	0.903
Mof_Cu	Cu	0.38561	0.38561	0.5	0.933
Mof_Cu	Cu	0.15331	0.65331	-0	0.903
Mof_Cu	Cu	0.11439	0.61439	-0	0.932
Mof_Cu	Cu	0.15331	0.15331	0.5	0.903
Mof_Cu	Cu	0.11439	0.11439	0.5	0.933
Mof_Cu	Cu	4.70951e-33	0.15331	0.34669	0.903
Mof_Cu	Cu	1.44581e-33	0.11439	0.38561	0.932
Mof_Cu	Cu	0.5	0.15331	0.84669	0.903
Mof_Cu	Cu	0.5	0.11439	0.88561	0.933
Mof_Cu	Cu	9.26878e-33	0.84669	0.65331	0.903
Mof_Cu	Cu	1.59421e-32	0.88561	0.61439	0.933
Mof_Cu	Cu	5.68927e-33	0.34669	0.15331	0.903
Mof_Cu	Cu	1.2813e-33	0.38561	0.11439	0.932
Mof_Cu	Cu	0.5	0.84669	0.15331	0.903
Mof_Cu	Cu	0.5	0.88561	0.11439	0.933
Mof_Cu	Cu	8.11914e-33	0.84669	0.34669	0.903
Mof_Cu	Cu	1.16747e-32	0.88561	0.38561	0.933
Mof_Cu	Cu	0.5	0.84669	0.84669	0.903
Mof_Cu	Cu	0.5	0.88561	0.88561	0.933
Mof_Cu	Cu	0.5	0.34669	0.34669	0.903
Mof_Cu	Cu	0.5	0.38561	0.38561	0.933
Mof_Cu	Cu	9.26878e-33	0.15331	0.65331	0.903
Mof_Cu	Cu	9.12286e-33	0.11439	0.61439	0.932
Mof_Cu	Cu	0.5	0.15331	0.15331	0.903
Mof_Cu	Cu	0.5	0.11439	0.11439	0.933
Mof_Cu	Cu	0.34669	0	0.15331	0.903
Mof_Cu	Cu	0.38561	8.52408e-34	0.11439	0.932
Mof_Cu	Cu	0.34669	0.5	0.65331	0.903
Mof_Cu	Cu	0.38561	0.5	0.61439	0.933
Mof_Cu	Cu	0.65331	6.81926e-33	0.84669	0.903
Mof_Cu	Cu	0.61439	6.81926e-33	0.88561	0.933
Mof_Cu	Cu	0.65331	0.5	0.34669	0.903
Mof_Cu	Cu	0.61439	0.5	0.38561	0.933
Mof_Cu	Cu	0.15331	0	0.34669	0.903
Mof_Cu	Cu	0.11439	0	0.38561	0.932
Mof_Cu	Cu	0.34669	6.81926e-33	0.84669	0.903
Mof_Cu	Cu	0.38561	6.81926e-33	0.88561	0.933
Mof_Cu	Cu	0.34669	0.5	0.34669	0.903
Mof_Cu	Cu	0.38561	0.5	0.38561	0.933
Mof_Cu	Cu	0.65331	0	0.15331	0.903
Mof_Cu	Cu	0.61439	8.52408e-34	0.11439	0.932
Mof_Cu	Cu	0.65331	0.5	0.65331	0.903
Mof_Cu	Cu	0.61439	0.5	0.61439	0.933
Mof_Cu	Cu	0.15331	0.5	0.15331	0.903
Mof_Cu	Cu	0.11439	0.5	0.11439	0.933
Mof_Cu	Cu	0.34669	0.65331	0.5	0.903
Mof_Cu	Cu	0.38561	0.61439	0.5	0.933
Mof_Cu	Cu	0.65331	0.84669	-0	0.903
Mof_Cu	Cu	0.61439	0.88561	-0	0.933
Mof_Cu	Cu	0.65331	0.34669	0.5	0.903
Mof_Cu	Cu	0.61439	0.38561	0.5	0.933
Mof_Cu	Cu	0.34669	0.84669	-0	0.903
Mof_Cu	Cu	0.38561	0.88561	-0	0.933
Mof_Cu	Cu	0.65331	0.15331	-0	0.903
Mof_Cu	Cu	0.61439	0.11439	-0	0.932
Mof_Cu	Cu	0.65331	0.65331	0.5	0.903
Mof_Cu	Cu	0.61439	0.61439	0.5	0.933
Mof_Cu	Cu	0.15331	6.81926e-33	0.65331	0.903
Mof_Cu	Cu	0.11439	6.81926e-33	0.61439	0.932
Mof_Cu	Cu	0.84669	0	0.34669	0.903
Mof_Cu	Cu	0.88561	0	0.38561	0.933
Mof_Cu	Cu	0.84669	0.5	0.84669	0.903
Mof_Cu	Cu	0.88561	0.5	0.88561	0.933
Mof_Cu	Cu	0.84669	6.81926e-33	0.65331	0.903
Mof_Cu	Cu	0.88561	6.81926e-33	0.61439	0.933
Mof_Cu	Cu	0.84669	0.5	0.15331	0.903
Mof_Cu	Cu	0.88561	0.5	0.11439	0.933
Mof_Cu	Cu	0.15331	0.5	0.84669	0.903
Mof_Cu	Cu	0.11439	0.5	0.88561	0.933
Mof_Cu	Cu	3.17458e-33	0.34669	0.84669	0.903
Mof_Cu	Cu	1.01398e-32	0.38561	0.88561	0.933
Mof_Cu	Cu	1.25085e-32	0.65331	0.15331	0.903
Mof_Cu	Cu	1.15102e-32	0.61439	0.11439	0.932
Mof_Cu	Cu	0.5	0.65331	0.65331	0.903
Mof_Cu	Cu	0.5	0.61439	0.61439	0.933
Mof_Cu	Cu	0.5	0.34669	0.65331	0.903
Mof_Cu	Cu	0.5	0.38561	0.61439	0.933
Mof_Cu	Cu	9.99384e-33	0.65331	0.84669	0.903
Mof_Cu	Cu	1.01398e-32	0.61439	0.88561	0.933
Mof_Cu	Cu	0.5	0.65331	0.34669	0.903
Mof_Cu	Cu	0.5	0.61439	0.38561	0.933
Mof_C 	C 	0.16138	0.42953	0.92953	-0.033
Mof_H 	H 	0.1437	0.435	0.935	0.079
Mof_C 	C 	0.2098	0.4108	0.9108	0.025
Mof_C 	C 	0.23653	0.40056	0.90056	-0.009
Mof_C 	C 	0.25548	0.39144	0.89144	-0.035
Mof_C 	C 	0.28034	0.3794	0.8794	0.054
Mof_C 	C 	0.322	0.35943	0.85943	0.126
Mof_C 	C 	0.66138	0.42953	0.42953	-0.033
Mof_H 	H 	0.6437	0.435	0.435	0.079
Mof_C 	C 	0.7098	0.4108	0.4108	0.025
Mof_C 	C 	0.73653	0.40056	0.40056	-0.009
Mof_C 	C 	0.75548	0.39144	0.39144	-0.035
Mof_C 	C 	0.78034	0.3794	0.3794	0.054
Mof_C 	C 	0.822	0.35943	0.35943	0.126
Mof_C 	C 	0.83862	0.57047	0.92953	-0.033
Mof_H 	H 	0.8563	0.565	0.935	0.079
Mof_C 	C 	0.7902	0.5892	0.9108	0.025
Mof_C 	C 	0.76347	0.59944	0.90056	-0.009
Mof_C 	C 	0.74452	0.60856	0.89144	-0.035
Mof_C 	C 	0.71966	0.6206	0.8794	0.054
Mof_C 	C 	0.678	0.64057	0.85943	0.126
Mof_C 	C 	0.83862	0.07047	0.42953	-0.033
Mof_H 	H 	0.8563	0.065	0.435	0.078
Mof_C 	C 	0.7902	0.0892	0.4108	0.025
Mof_C 	C 	0.76347	0.09944	0.40056	-0.01
Mof_C 	C 	0.74452	0.10856	0.39144	-0.035
Mof_C 	C 	0.71966	0.1206	0.3794	0.054
Mof_C 	C 	0.678	0.14057	0.35943	0.127
Mof_C 	C 	0.33862	0.57047	0.42953	-0.033
Mof_H 	H 	0.3563	0.565	0.435	0.079
Mof_C 	C 	0.2902	0.5892	0.4108	0.025
Mof_C 	C 	0.26347	0.59944	0.40056	-0.009
Mof_C 	C 	0.24452	0.60856	0.39144	-0.035
Mof_C 	C 	0.21966	0.6206	0.3794	0.054
Mof_C 	C 	0.178	0.64057	0.35943	0.127
Mof_C 	C 	0.83862	0.42953	0.07047	-0.033
Mof_H 	H 	0.8563	0.435	0.065	0.078
Mof_C 	C 	0.7902	0.4108	0.0892	0.025
Mof_C 	C 	0.76347	0.40056	0.09944	-0.01
Mof_C 	C 	0.74452	0.39144	0.10856	-0.035
Mof_C 	C 	0.71966	0.3794	0.1206	0.054
Mof_C 	C 	0.678	0.35943	0.14057	0.127
Mof_C 	C 	0.33862	0.42953	0.57047	-0.033
Mof_H 	H 	0.3563	0.435	0.565	0.079
Mof_C 	C 	0.2902	0.4108	0.5892	0.025
Mof_C 	C 	0.26347	0.40056	0.59944	-0.009
Mof_C 	C 	0.24452	0.39144	0.60856	-0.035
Mof_C 	C 	0.21966	0.3794	0.6206	0.054
Mof_C 	C 	0.178	0.35943	0.64057	0.127
Mof_C 	C 	0.16138	0.57047	0.07047	-0.033
Mof_H 	H 	0.1437	0.565	0.065	0.078
Mof_C 	C 	0.2098	0.5892	0.0892	0.025
Mof_C 	C 	0.23653	0.59944	0.09944	-0.01
Mof_C 	C 	0.25548	0.60856	0.10856	-0.035
Mof_C 	C 	0.28034	0.6206	0.1206	0.054
Mof_C 	C 	0.322	0.64057	0.14057	0.127
Mof_C 	C 	0.66138	0.57047	0.57047	-0.033
Mof_H 	H 	0.6437	0.565	0.565	0.079
Mof_C 	C 	0.7098	0.5892	0.5892	0.025
Mof_C 	C 	0.73653	0.59944	0.59944	-0.009
Mof_C 	C 	0.75548	0.60856	0.60856	-0.035
Mof_C 	C 	0.78034	0.6206	0.6206	0.054
Mof_C 	C 	0.822	0.64057	0.64057	0.126
Mof_C 	C 	0.66138	0.07047	0.07047	-0.033
Mof_H 	H 	0.6437	0.065	0.065	0.078
Mof_C 	C 	0.7098	0.0892	0.0892	0.025
Mof_C 	C 	0.73653	0.09944	0.09944	-0.01
Mof_C 	C 	0.75548	0.10856	0.10856	-0.035
Mof_C 	C 	0.78034	0.1206	0.1206	0.054
Mof_C 	C 	0.822	0.14057	0.14057	0.127
Mof_C 	C 	0.92953	0.16138	0.42953	-0.033
Mof_H 	H 	0.935	0.1437	0.435	0.079
Mof_C 	C 	0.9108	0.2098	0.4108	0.025
Mof_C 	C 	0.90056	0.23653	0.40056	-0.009
Mof_C 	C 	0.89144	0.25548	0.39144	-0.035
Mof_C 	C 	0.8794	0.28034	0.3794	0.054
Mof_C 	C 	0.85943	0.322	0.35943	0.126
Mof_C 	C 	0.92953	0.66138	0.92953	-0.033
Mof_H 	H 	0.935	0.6437	0.935	0.079
Mof_C 	C 	0.9108	0.7098	0.9108	0.025
Mof_C 	C 	0.90056	0.73653	0.90056	-0.009
Mof_C 	C 	0.89144	0.75548	0.89144	-0.035
Mof_C 	C 	0.8794	0.78034	0.8794	0.054
Mof_C 	C 	0.85943	0.822	0.85943	0.126
Mof_C 	C 	0.42953	0.66138	0.42953	-0.033
Mof_H 	H 	0.435	0.6437	0.435	0.079
Mof_C 	C 	0.4108	0.7098	0.4108	0.025
Mof_C 	C 	0.40056	0.73653	0.40056	-0.009
Mof_C 	C 	0.39144	0.75548	0.39144	-0.035
Mof_C 	C 	0.3794	0.78034	0.3794	0.054
Mof_C 	C 	0.35943	0.822	0.35943	0.126
Mof_C 	C 	0.92953	0.83862	0.57047	-0.033
Mof_H 	H 	0.935	0.8563	0.565	0.079
Mof_C 	C 	0.9108	0.7902	0.5892	0.025
Mof_C 	C 	0.90056	0.76347	0.59944	-0.009
Mof_C 	C 	0.89144	0.74452	0.60856	-0.035
Mof_C 	C 	0.8794	0.71966	0.6206	0.054
Mof_C 	C 	0.85943	0.678	0.64057	0.126
Mof_C 	C 	0.92953	0.33862	0.07047	-0.033
Mof_H 	H 	0.935	0.3563	0.065	0.079
Mof_C 	C 	0.9108	0.2902	0.0892	0.025
Mof_C 	C 	0.90056	0.26347	0.09944	-0.009
Mof_C 	C 	0.89144	0.24452	0.10856	-0.035
Mof_C 	C 	0.8794	0.21966	0.1206	0.054
Mof_C 	C 	0.85943	0.178	0.14057	0.126
Mof_C 	C 	0.42953	0.83862	0.07047	-0.033
Mof_H 	H 	0.435	0.8563	0.065	0.078
Mof_C 	C 	0.4108	0.7902	0.0892	0.025
Mof_C 	C 	0.40056	0.76347	0.09944	-0.01
Mof_C 	C 	0.39144	0.74452	0.10856	-0.035
Mof_C 	C 	0.3794	0.71966	0.1206	0.054
Mof_C 	C 	0.35943	0.678	0.14057	0.127
Mof_C 	C 	0.07047	0.83862	0.42953	-0.033
Mof_H 	H 	0.065	0.8563	0.435	0.078
Mof_C 	C 	0.0892	0.7902	0.4108	0.025
Mof_C 	C 	0.09944	0.76347	0.40056	-0.01
Mof_C 	C 	0.10856	0.74452	0.39144	-0.035
Mof_C 	C 	0.1206	0.71966	0.3794	0.054
Mof_C 	C 	0.14057	0.678	0.35943	0.127
Mof_C 	C 	0.07047	0.33862	0.92953	-0.033
Mof_H 	H 	0.065	0.3563	0.935	0.079
Mof_C 	C 	0.0892	0.2902	0.9108	0.025
Mof_C 	C 	0.09944	0.26347	0.90056	-0.009
Mof_C 	C 	0.10856	0.24452	0.89144	-0.035
Mof_C 	C 	0.1206	0.21966	0.8794	0.054
Mof_C 	C 	0.14057	0.178	0.85943	0.126
Mof_C 	C 	0.07047	0.16138	0.57047	-0.033
Mof_H 	H 	0.065	0.1437	0.565	0.078
Mof_C 	C 	0.0892	0.2098	0.5892	0.025
Mof_C 	C 	0.09944	0.23653	0.59944	-0.01
Mof_C 	C 	0.10856	0.25548	0.60856	-0.035
Mof_C 	C 	0.1206	0.28034	0.6206	0.054
Mof_C 	C 	0.14057	0.322	0.64057	0.127
Mof_C 	C 	0.07047	0.66138	0.07047	-0.033
Mof_H 	H 	0.065	0.6437	0.065	0.078
Mof_C 	C 	0.0892	0.7098	0.0892	0.025
Mof_C 	C 	0.09944	0.73653	0.09944	-0.01
Mof_C 	C 	0.10856	0.75548	0.10856	-0.035
Mof_C 	C 	0.1206	0.78034	0.1206	0.054
Mof_C 	C 	0.14057	0.822	0.14057	0.127
Mof_C 	C 	0.42953	0.92953	0.16138	-0.033
Mof_H 	H 	0.435	0.935	0.1437	0.079
Mof_C 	C 	0.4108	0.9108	0.2098	0.025
Mof_C 	C 	0.40056	0.90056	0.23653	-0.009
Mof_C 	C 	0.39144	0.89144	0.25548	-0.035
Mof_C 	C 	0.3794	0.8794	0.28034	0.054
Mof_C 	C 	0.35943	0.85943	0.322	0.126
Mof_C 	C 	0.42953	0.42953	0.66138	-0.033
Mof_H 	H 	0.435	0.435	0.6437	0.079
Mof_C 	C 	0.4108	0.4108	0.7098	0.025
Mof_C 	C 	0.40056	0.40056	0.73653	-0.009
Mof_C 	C 	0.39144	0.39144	0.75548	-0.035
Mof_C 	C 	0.3794	0.3794	0.78034	0.054
Mof_C 	C 	0.35943	0.35943	0.822	0.126
Mof_C 	C 	0.57047	0.92953	0.83862	-0.033
Mof_H 	H 	0.565	0.935	0.8563	0.079
Mof_C 	C 	0.5892	0.9108	0.7902	0.025
Mof_C 	C 	0.59944	0.90056	0.76347	-0.009
Mof_C 	C 	0.60856	0.89144	0.74452	-0.035
Mof_C 	C 	0.6206	0.8794	0.71966	0.054
Mof_C 	C 	0.64057	0.85943	0.678	0.126
Mof_C 	C 	0.57047	0.42953	0.33862	-0.033
Mof_H 	H 	0.565	0.435	0.3563	0.079
Mof_C 	C 	0.5892	0.4108	0.2902	0.025
Mof_C 	C 	0.59944	0.40056	0.26347	-0.009
Mof_C 	C 	0.60856	0.39144	0.24452	-0.035
Mof_C 	C 	0.6206	0.3794	0.21966	0.054
Mof_C 	C 	0.64057	0.35943	0.178	0.127
Mof_C 	C 	0.07047	0.42953	0.83862	-0.033
Mof_H 	H 	0.065	0.435	0.8563	0.078
Mof_C 	C 	0.0892	0.4108	0.7902	0.025
Mof_C 	C 	0.09944	0.40056	0.76347	-0.01
Mof_C 	C 	0.10856	0.39144	0.74452	-0.035
Mof_C 	C 	0.1206	0.3794	0.71966	0.054
Mof_C 	C 	0.14057	0.35943	0.678	0.127
Mof_C 	C 	0.42953	0.07047	0.83862	-0.033
Mof_H 	H 	0.435	0.065	0.8563	0.078
Mof_C 	C 	0.4108	0.0892	0.7902	0.025
Mof_C 	C 	0.40056	0.09944	0.76347	-0.01
Mof_C 	C 	0.39144	0.10856	0.74452	-0.035
Mof_C 	C 	0.3794	0.1206	0.71966	0.054
Mof_C 	C 	0.35943	0.14057	0.678	0.127
Mof_C 	C 	0.42953	0.57047	0.33862	-0.033
Mof_H 	H 	0.435	0.565	0.3563	0.079
Mof_C 	C 	0.4108	0.5892	0.2902	0.025
Mof_C 	C 	0.40056	0.59944	0.26347	-0.009
Mof_C 	C 	0.39144	0.60856	0.24452	-0.035
Mof_C 	C 	0.3794	0.6206	0.21966	0.054
Mof_C 	C 	0.35943	0.64057	0.178	0.127
Mof_C 	C 	0.57047	0.07047	0.16138	-0.033
Mof_H 	H 	0.565	0.065	0.1437	0.078
Mof_C 	C 	0.5892	0.0892	0.2098	0.025
Mof_C 	C 	0.59944	0.09944	0.23653	-0.01
Mof_C 	C 	0.60856	0.10856	0.25548	-0.035
Mof_C 	C 	0.6206	0.1206	0.28034	0.054
Mof_C 	C 	0.64057	0.14057	0.322	0.127
Mof_C 	C 	0.57047	0.57047	0.66138	-0.033
Mof_H 	H 	0.565	0.565	0.6437	0.079
Mof_C 	C 	0.5892	0.5892	0.7098	0.025
Mof_C 	C 	0.59944	0.59944	0.73653	-0.009
Mof_C 	C 	0.60856	0.60856	0.75548	-0.035
Mof_C 	C 	0.6206	0.6206	0.78034	0.054
Mof_C 	C 	0.64057	0.64057	0.822	0.126
Mof_C 	C 	0.07047	0.07047	0.66138	-0.033
Mof_H 	H 	0.065	0.065	0.6437	0.078
Mof_C 	C 	0.0892	0.0892	0.7098	0.025
Mof_C 	C 	0.09944	0.09944	0.73653	-0.01
Mof_C 	C 	0.10856	0.10856	0.75548	-0.035
Mof_C 	C 	0.1206	0.1206	0.78034	0.054
Mof_C 	C 	0.14057	0.14057	0.822	0.127
Mof_C 	C 	0.42953	0.16138	0.07047	-0.033
Mof_H 	H 	0.435	0.1437	0.065	0.078
Mof_C 	C 	0.4108	0.2098	0.0892	0.025
Mof_C 	C 	0.40056	0.23653	0.09944	-0.01
Mof_C 	C 	0.39144	0.25548	0.10856	-0.035
Mof_C 	C 	0.3794	0.28034	0.1206	0.054
Mof_C 	C 	0.35943	0.322	0.14057	0.127
Mof_C 	C 	0.42953	0.66138	0.57047	-0.033
Mof_H 	H 	0.435	0.6437	0.565	0.079
Mof_C 	C 	0.4108	0.7098	0.5892	0.025
Mof_C 	C 	0.40056	0.73653	0.59944	-0.009
Mof_C 	C 	0.39144	0.75548	0.60856	-0.035
Mof_C 	C 	0.3794	0.78034	0.6206	0.054
Mof_C 	C 	0.35943	0.822	0.64057	0.126
Mof_C 	C 	0.57047	0.83862	0.07047	-0.033
Mof_H 	H 	0.565	0.8563	0.065	0.078
Mof_C 	C 	0.5892	0.7902	0.0892	0.025
Mof_C 	C 	0.59944	0.76347	0.09944	-0.01
Mof_C 	C 	0.60856	0.74452	0.10856	-0.035
Mof_C 	C 	0.6206	0.71966	0.1206	0.054
Mof_C 	C 	0.64057	0.678	0.14057	0.127
Mof_C 	C 	0.57047	0.33862	0.57047	-0.033
Mof_H 	H 	0.565	0.3563	0.565	0.079
Mof_C 	C 	0.5892	0.2902	0.5892	0.025
Mof_C 	C 	0.59944	0.26347	0.59944	-0.009
Mof_C 	C 	0.60856	0.24452	0.60856	-0.035
Mof_C 	C 	0.6206	0.21966	0.6206	0.054
Mof_C 	C 	0.64057	0.178	0.64057	0.127
Mof_C 	C 	0.07047	0.33862	0.07047	-0.033
Mof_H 	H 	0.065	0.3563	0.065	0.078
Mof_C 	C 	0.0892	0.2902	0.0892	0.025
Mof_C 	C 	0.09944	0.26347	0.09944	-0.01
Mof_C 	C 	0.10856	0.24452	0.10856	-0.035
Mof_C 	C 	0.1206	0.21966	0.1206	0.054
Mof_C 	C 	0.14057	0.178	0.14057	0.127
Mof_C 	C 	0.42953	0.83862	0.92953	-0.033
Mof_H 	H 	0.435	0.8563	0.935	0.079
Mof_C 	C 	0.4108	0.7902	0.9108	0.025
Mof_C 	C 	0.40056	0.76347	0.90056	-0.009
Mof_C 	C 	0.39144	0.74452	0.89144	-0.035
Mof_C 	C 	0.3794	0.71966	0.8794	0.054
Mof_C 	C 	0.35943	0.678	0.85943	0.126
Mof_C 	C 	0.42953	0.33862	0.42953	-0.033
Mof_H 	H 	0.435	0.3563	0.435	0.079
Mof_C 	C 	0.4108	0.2902	0.4108	0.025
Mof_C 	C 	0.40056	0.26347	0.40056	-0.009
Mof_C 	C 	0.39144	0.24452	0.39144	-0.035
Mof_C 	C 	0.3794	0.21966	0.3794	0.054
Mof_C 	C 	0.35943	0.178	0.35943	0.126
Mof_C 	C 	0.57047	0.16138	0.92953	-0.033
Mof_H 	H 	0.565	0.1437	0.935	0.079
Mof_C 	C 	0.5892	0.2098	0.9108	0.025
Mof_C 	C 	0.59944	0.23653	0.90056	-0.009
Mof_C 	C 	0.60856	0.25548	0.89144	-0.035
Mof_C 	C 	0.6206	0.28034	0.8794	0.054
Mof_C 	C 	0.64057	0.322	0.85943	0.126
Mof_C 	C 	0.57047	0.66138	0.42953	-0.033
Mof_H 	H 	0.565	0.6437	0.435	0.079
Mof_C 	C 	0.5892	0.7098	0.4108	0.025
Mof_C 	C 	0.59944	0.73653	0.40056	-0.009
Mof_C 	C 	0.60856	0.75548	0.39144	-0.035
Mof_C 	C 	0.6206	0.78034	0.3794	0.054
Mof_C 	C 	0.64057	0.822	0.35943	0.126
Mof_C 	C 	0.07047	0.16138	0.42953	-0.033
Mof_H 	H 	0.065	0.1437	0.435	0.078
Mof_C 	C 	0.0892	0.2098	0.4108	0.025
Mof_C 	C 	0.09944	0.23653	0.40056	-0.01
Mof_C 	C 	0.10856	0.25548	0.39144	-0.035
Mof_C 	C 	0.1206	0.28034	0.3794	0.054
Mof_C 	C 	0.14057	0.322	0.35943	0.127
Mof_C 	C 	0.16138	0.92953	0.57047	-0.033
Mof_H 	H 	0.1437	0.935	0.565	0.079
Mof_C 	C 	0.2098	0.9108	0.5892	0.025
Mof_C 	C 	0.23653	0.90056	0.59944	-0.009
Mof_C 	C 	0.25548	0.89144	0.60856	-0.035
Mof_C 	C 	0.28034	0.8794	0.6206	0.054
Mof_C 	C 	0.322	0.85943	0.64057	0.126
Mof_C 	C 	0.16138	0.42953	0.07047	-0.033
Mof_H 	H 	0.1437	0.435	0.065	0.078
Mof_C 	C 	0.2098	0.4108	0.0892	0.025
Mof_C 	C 	0.23653	0.40056	0.09944	-0.01
Mof_C 	C 	0.25548	0.39144	0.10856	-0.035
Mof_C 	C 	0.28034	0.3794	0.1206	0.054
Mof_C 	C 	0.322	0.35943	0.14057	0.127
Mof_C 	C 	0.66138	0.92953	0.07047	-0.033
Mof_H 	H 	0.6437	0.935	0.065	0.079
Mof_C 	C 	0.7098	0.9108	0.0892	0.025
Mof_C 	C 	0.73653	0.90056	0.09944	-0.009
Mof_C 	C 	0.75548	0.89144	0.10856	-0.035
Mof_C 	C 	0.78034	0.8794	0.1206	0.054
Mof_C 	C 	0.822	0.85943	0.14057	0.126
Mof_C 	C 	0.83862	0.92953	0.42953	-0.033
Mof_H 	H 	0.8563	0.935	0.435	0.079
Mof_C 	C 	0.7902	0.9108	0.4108	0.025
Mof_C 	C 	0.76347	0.90056	0.40056	-0.009
Mof_C 	C 	0.74452	0.89144	0.39144	-0.035
Mof_C 	C 	0.71966	0.8794	0.3794	0.054
Mof_C 	C 	0.678	0.85943	0.35943	0.126
Mof_C 	C 	0.33862	0.92953	0.92953	-0.033
Mof_H 	H 	0.3563	0.935	0.935	0.079
Mof_C 	C 	0.2902	0.9108	0.9108	0.025
Mof_C 	C 	0.26347	0.90056	0.90056	-0.009
Mof_C 	C 	0.24452	0.89144	0.89144	-0.035
Mof_C 	C 	0.21966	0.8794	0.8794	0.054
Mof_C 	C 	0.178	0.85943	0.85943	0.126
Mof_C 	C 	0.33862	0.42953	0.42953	-0.033
Mof_H 	H 	0.3563	0.435	0.435	0.079
Mof_C 	C 	0.2902	0.4108	0.4108	0.025
Mof_C 	C 	0.26347	0.40056	0.40056	-0.009
Mof_C 	C 	0.24452	0.39144	0.39144	-0.035
Mof_C 	C 	0.21966	0.3794	0.3794	0.054
Mof_C 	C 	0.178	0.35943	0.35943	0.126
Mof_C 	C 	0.83862	0.07047	0.57047	-0.033
Mof_H 	H 	0.8563	0.065	0.565	0.078
Mof_C 	C 	0.7902	0.0892	0.5892	0.025
Mof_C 	C 	0.76347	0.09944	0.59944	-0.01
Mof_C 	C 	0.74452	0.10856	0.60856	-0.035
Mof_C 	C 	0.71966	0.1206	0.6206	0.054
Mof_C 	C 	0.678	0.14057	0.64057	0.127
Mof_C 	C 	0.33862	0.07047	0.07047	-0.033
Mof_H 	H 	0.3563	0.065	0.065	0.078
Mof_C 	C 	0.2902	0.0892	0.0892	0.025
Mof_C 	C 	0.26347	0.09944	0.09944	-0.01
Mof_C 	C 	0.24452	0.10856	0.10856	-0.035
Mof_C 	C 	0.21966	0.1206	0.1206	0.054
Mof_C 	C 	0.178	0.14057	0.14057	0.127
Mof_C 	C 	0.16138	0.07047	0.42953	-0.033
Mof_H 	H 	0.1437	0.065	0.435	0.078
Mof_C 	C 	0.2098	0.0892	0.4108	0.025
Mof_C 	C 	0.23653	0.09944	0.40056	-0.01
Mof_C 	C 	0.25548	0.10856	0.39144	-0.035
Mof_C 	C 	0.28034	0.1206	0.3794	0.054
Mof_C 	C 	0.322	0.14057	0.35943	0.127
Mof_C 	C 	0.66138	0.07047	0.92953	-0.033
Mof_H 	H 	0.6437	0.065	0.935	0.079
Mof_C 	C 	0.7098	0.0892	0.9108	0.025
Mof_C 	C 	0.73653	0.09944	0.90056	-0.009
Mof_C 	C 	0.75548	0.10856	0.89144	-0.035
Mof_C 	C 	0.78034	0.1206	0.8794	0.054
Mof_C 	C 	0.822	0.14057	0.85943	0.126
Mof_C 	C 	0.92953	0.42953	0.83862	-0.033
Mof_H 	H 	0.935	0.435	0.8563	0.079
Mof_C 	C 	0.9108	0.4108	0.7902	0.025
Mof_C 	C 	0.90056	0.40056	0.76347	-0.009
Mof_C 	C 	0.89144	0.39144	0.74452	-0.035
Mof_C 	C 	0.8794	0.3794	0.71966	0.054
Mof_C 	C 	0.85943	0.35943	0.678	0.126
Mof_C 	C 	0.92953	0.92953	0.33862	-0.033
Mof_H 	H 	0.935	0.935	0.3563	0.079
Mof_C 	C 	0.9108	0.9108	0.2902	0.025
Mof_C 	C 	0.90056	0.90056	0.26347	-0.009
Mof_C 	C 	0.89144	0.89144	0.24452	-0.035
Mof_C 	C 	0.8794	0.8794	0.21966	0.054
Mof_C 	C 	0.85943	0.85943	0.178	0.126
Mof_C 	C 	0.42953	0.42953	0.33862	-0.033
Mof_H 	H 	0.435	0.435	0.3563	0.079
Mof_C 	C 	0.4108	0.4108	0.2902	0.025
Mof_C 	C 	0.40056	0.40056	0.26347	-0.009
Mof_C 	C 	0.39144	0.39144	0.24452	-0.035
Mof_C 	C 	0.3794	0.3794	0.21966	0.054
Mof_C 	C 	0.35943	0.35943	0.178	0.126
Mof_C 	C 	0.92953	0.57047	0.16138	-0.033
Mof_H 	H 	0.935	0.565	0.1437	0.079
Mof_C 	C 	0.9108	0.5892	0.2098	0.025
Mof_C 	C 	0.90056	0.59944	0.23653	-0.009
Mof_C 	C 	0.89144	0.60856	0.25548	-0.035
Mof_C 	C 	0.8794	0.6206	0.28034	0.054
Mof_C 	C 	0.85943	0.64057	0.322	0.126
Mof_C 	C 	0.92953	0.07047	0.66138	-0.033
Mof_H 	H 	0.935	0.065	0.6437	0.079
Mof_C 	C 	0.9108	0.0892	0.7098	0.025
Mof_C 	C 	0.90056	0.09944	0.73653	-0.009
Mof_C 	C 	0.89144	0.10856	0.75548	-0.035
Mof_C 	C 	0.8794	0.1206	0.78034	0.054
Mof_C 	C 	0.85943	0.14057	0.822	0.126
Mof_C 	C 	0.42953	0.07047	0.16138	-0.033
Mof_H 	H 	0.435	0.065	0.1437	0.078
Mof_C 	C 	0.4108	0.0892	0.2098	0.025
Mof_C 	C 	0.40056	0.09944	0.23653	-0.01
Mof_C 	C 	0.39144	0.10856	0.25548	-0.035
Mof_C 	C 	0.3794	0.1206	0.28034	0.054
Mof_C 	C 	0.35943	0.14057	0.322	0.127
Mof_C 	C 	0.07047	0.42953	0.16138	-0.033
Mof_H 	H 	0.065	0.435	0.1437	0.078
Mof_C 	C 	0.0892	0.4108	0.2098	0.025
Mof_C 	C 	0.09944	0.40056	0.23653	-0.01
Mof_C 	C 	0.10856	0.39144	0.25548	-0.035
Mof_C 	C 	0.1206	0.3794	0.28034	0.054
Mof_C 	C 	0.14057	0.35943	0.322	0.127
Mof_C 	C 	0.07047	0.92953	0.66138	-0.033
Mof_H 	H 	0.065	0.935	0.6437	0.079
Mof_C 	C 	0.0892	0.9108	0.7098	0.025
Mof_C 	C 	0.09944	0.90056	0.73653	-0.009
Mof_C 	C 	0.10856	0.89144	0.75548	-0.035
Mof_C 	C 	0.1206	0.8794	0.78034	0.054
Mof_C 	C 	0.14057	0.85943	0.822	0.126
Mof_C 	C 	0.07047	0.57047	0.83862	-0.033
Mof_H 	H 	0.065	0.565	0.8563	0.078
Mof_C 	C 	0.0892	0.5892	0.7902	0.025
Mof_C 	C 	0.09944	0.59944	0.76347	-0.01
Mof_C 	C 	0.10856	0.60856	0.74452	-0.035
Mof_C 	C 	0.1206	0.6206	0.71966	0.054
Mof_C 	C 	0.14057	0.64057	0.678	0.127
Mof_C 	C 	0.07047	0.07047	0.33862	-0.033
Mof_H 	H 	0.065	0.065	0.3563	0.078
Mof_C 	C 	0.0892	0.0892	0.2902	0.025
Mof_C 	C 	0.09944	0.09944	0.26347	-0.01
Mof_C 	C 	0.10856	0.10856	0.24452	-0.035
Mof_C 	C 	0.1206	0.1206	0.21966	0.054
Mof_C 	C 	0.14057	0.14057	0.178	0.127
Mof_C 	C 	0.83862	0.57047	0.07047	-0.033
Mof_H 	H 	0.8563	0.565	0.065	0.078
Mof_C 	C 	0.7902	0.5892	0.0892	0.025
Mof_C 	C 	0.76347	0.59944	0.09944	-0.01
Mof_C 	C 	0.74452	0.60856	0.10856	-0.035
Mof_C 	C 	0.71966	0.6206	0.1206	0.054
Mof_C 	C 	0.678	0.64057	0.14057	0.127
Mof_C 	C 	0.33862	0.57047	0.57047	-0.033
Mof_H 	H 	0.3563	0.565	0.565	0.079
Mof_C 	C 	0.2902	0.5892	0.5892	0.025
Mof_C 	C 	0.26347	0.59944	0.59944	-0.009
Mof_C 	C 	0.24452	0.60856	0.60856	-0.035
Mof_C 	C 	0.21966	0.6206	0.6206	0.054
Mof_C 	C 	0.178	0.64057	0.64057	0.127
Mof_C 	C 	0.66138	0.42953	0.57047	-0.033
Mof_H 	H 	0.6437	0.435	0.565	0.079
Mof_C 	C 	0.7098	0.4108	0.5892	0.025
Mof_C 	C 	0.73653	0.40056	0.59944	-0.009
Mof_C 	C 	0.75548	0.39144	0.60856	-0.035
Mof_C 	C 	0.78034	0.3794	0.6206	0.054
Mof_C 	C 	0.822	0.35943	0.64057	0.126
Mof_C 	C 	0.16138	0.57047	0.92953	-0.033
Mof_H 	H 	0.1437	0.565	0.935	0.079
Mof_C 	C 	0.2098	0.5892	0.9108	0.025
Mof_C 	C 	0.23653	0.59944	0.90056	-0.009
Mof_C 	C 	0.25548	0.60856	0.89144	-0.035
Mof_C 	C 	0.28034	0.6206	0.8794	0.054
Mof_C 	C 	0.322	0.64057	0.85943	0.126
Mof_C 	C 	0.66138	0.57047	0.42953	-0.033
Mof_H 	H 	0.6437	0.565	0.435	0.079
Mof_C 	C 	0.7098	0.5892	0.4108	0.025
Mof_C 	C 	0.73653	0.59944	0.40056	-0.009
Mof_C 	C 	0.75548	0.60856	0.39144	-0.035
Mof_C 	C 	0.78034	0.6206	0.3794	0.054
Mof_C 	C 	0.822	0.64057	0.35943	0.126
Mof_C 	C 	0.83862	0.42953	0.92953	-0.033
Mof_H 	H 	0.8563	0.435	0.935	0.079
Mof_C 	C 	0.7902	0.4108	0.9108	0.025
Mof_C 	C 	0.76347	0.40056	0.90056	-0.009
Mof_C 	C 	0.74452	0.39144	0.89144	-0.035
Mof_C 	C 	0.71966	0.3794	0.8794	0.054
Mof_C 	C 	0.678	0.35943	0.85943	0.126
Mof_C 	C 	0.07047	0.83862	0.57047	-0.033
Mof_H 	H 	0.065	0.8563	0.565	0.078
Mof_C 	C 	0.0892	0.7902	0.5892	0.025
Mof_C 	C 	0.09944	0.76347	0.59944	-0.01
Mof_C 	C 	0.10856	0.74452	0.60856	-0.035
Mof_C 	C 	0.1206	0.71966	0.6206	0.054
Mof_C 	C 	0.14057	0.678	0.64057	0.127
Mof_C 	C 	0.07047	0.66138	0.92953	-0.033
Mof_H 	H 	0.065	0.6437	0.935	0.079
Mof_C 	C 	0.0892	0.7098	0.9108	0.025
Mof_C 	C 	0.09944	0.73653	0.90056	-0.009
Mof_C 	C 	0.10856	0.75548	0.89144	-0.035
Mof_C 	C 	0.1206	0.78034	0.8794	0.054
Mof_C 	C 	0.14057	0.822	0.85943	0.126
Mof_C 	C 	0.92953	0.16138	0.57047	-0.033
Mof_H 	H 	0.935	0.1437	0.565	0.079
Mof_C 	C 	0.9108	0.2098	0.5892	0.025
Mof_C 	C 	0.90056	0.23653	0.59944	-0.009
Mof_C 	C 	0.89144	0.25548	0.60856	-0.035
Mof_C 	C 	0.8794	0.28034	0.6206	0.054
Mof_C 	C 	0.85943	0.322	0.64057	0.126
Mof_C 	C 	0.92953	0.66138	0.07047	-0.033
Mof_H 	H 	0.935	0.6437	0.065	0.079
Mof_C 	C 	0.9108	0.7098	0.0892	0.025
Mof_C 	C 	0.90056	0.73653	0.09944	-0.009
Mof_C 	C 	0.89144	0.75548	0.10856	-0.035
Mof_C 	C 	0.8794	0.78034	0.1206	0.054
Mof_C 	C 	0.85943	0.822	0.14057	0.126
Mof_C 	C 	0.92953	0.83862	0.42953	-0.033
Mof_H 	H 	0.935	0.8563	0.435	0.079
Mof_C 	C 	0.9108	0.7902	0.4108	0.025
Mof_C 	C 	0.90056	0.76347	0.40056	-0.009
Mof_C 	C 	0.89144	0.74452	0.39144	-0.035
Mof_C 	C 	0.8794	0.71966	0.3794	0.054
Mof_C 	C 	0.85943	0.678	0.35943	0.126
Mof_C 	C 	0.92953	0.33862	0.92953	-0.033
Mof_H 	H 	0.935	0.3563	0.935	0.079
Mof_C 	C 	0.9108	0.2902	0.9108	0.025
Mof_C 	C 	0.90056	0.26347	0.90056	-0.009
Mof_C 	C 	0.89144	0.24452	0.89144	-0.035
Mof_C 	C 	0.8794	0.21966	0.8794	0.054
Mof_C 	C 	0.85943	0.178	0.85943	0.126
Mof_C 	C 	0.57047	0.07047	0.83862	-0.033
Mof_H 	H 	0.565	0.065	0.8563	0.078
Mof_C 	C 	0.5892	0.0892	0.7902	0.025
Mof_C 	C 	0.59944	0.09944	0.76347	-0.01
Mof_C 	C 	0.60856	0.10856	0.74452	-0.035
Mof_C 	C 	0.6206	0.1206	0.71966	0.054
Mof_C 	C 	0.64057	0.14057	0.678	0.127
Mof_C 	C 	0.57047	0.57047	0.33862	-0.033
Mof_H 	H 	0.565	0.565	0.3563	0.079
Mof_C 	C 	0.5892	0.5892	0.2902	0.025
Mof_C 	C 	0.59944	0.59944	0.26347	-0.009
Mof_C 	C 	0.60856	0.60856	0.24452	-0.035
Mof_C 	C 	0.6206	0.6206	0.21966	0.054
Mof_C 	C 	0.64057	0.64057	0.178	0.127
Mof_C 	C 	0.42953	0.57047	0.66138	-0.033
Mof_H 	H 	0.435	0.565	0.6437	0.079
Mof_C 	C 	0.4108	0.5892	0.7098	0.025
Mof_C 	C 	0.40056	0.59944	0.73653	-0.009
Mof_C 	C 	0.39144	0.60856	0.75548	-0.035
Mof_C 	C 	0.3794	0.6206	0.78034	0.054
Mof_C 	C 	0.35943	0.64057	0.822	0.126
Mof_C 	C 	0.57047	0.92953	0.16138	-0.033
Mof_H 	H 	0.565	0.935	0.1437	0.079
Mof_C 	C 	0.5892	0.9108	0.2098	0.025
Mof_C 	C 	0.59944	0.90056	0.23653	-0.009
Mof_C 	C 	0.60856	0.89144	0.25548	-0.035
Mof_C 	C 	0.6206	0.8794	0.28034	0.054
Mof_C 	C 	0.64057	0.85943	0.322	0.126
Mof_C 	C 	0.57047	0.42953	0.66138	-0.033
Mof_H 	H 	0.565	0.435	0.6437	0.079
Mof_C 	C 	0.5892	0.4108	0.7098	0.025
Mof_C 	C 	0.59944	0.40056	0.73653	-0.009
Mof_C 	C 	0.60856	0.39144	0.75548	-0.035
Mof_C 	C 	0.6206	0.3794	0.78034	0.054
Mof_C 	C 	0.64057	0.35943	0.822	0.126
Mof_C 	C 	0.42953	0.92953	0.83862	-0.033
Mof_H 	H 	0.435	0.935	0.8563	0.079
Mof_C 	C 	0.4108	0.9108	0.7902	0.025
Mof_C 	C 	0.40056	0.90056	0.76347	-0.009
Mof_C 	C 	0.39144	0.89144	0.74452	-0.035
Mof_C 	C 	0.3794	0.8794	0.71966	0.054
Mof_C 	C 	0.35943	0.85943	0.678	0.126
Mof_C 	C 	0.57047	0.83862	0.92953	-0.033
Mof_H 	H 	0.565	0.8563	0.935	0.079
Mof_C 	C 	0.5892	0.7902	0.9108	0.025
Mof_C 	C 	0.59944	0.76347	0.90056	-0.009
Mof_C 	C 	0.60856	0.74452	0.89144	-0.035
Mof_C 	C 	0.6206	0.71966	0.8794	0.054
Mof_C 	C 	0.64057	0.678	0.85943	0.126
Mof_C 	C 	0.57047	0.33862	0.42953	-0.033
Mof_H 	H 	0.565	0.3563	0.435	0.079
Mof_C 	C 	0.5892	0.2902	0.4108	0.025
Mof_C 	C 	0.59944	0.26347	0.40056	-0.009
Mof_C 	C 	0.60856	0.24452	0.39144	-0.035
Mof_C 	C 	0.6206	0.21966	0.3794	0.054
Mof_C 	C 	0.64057	0.178	0.35943	0.127
Mof_C 	C 	0.42953	0.16138	0.92953	-0.033
Mof_H 	H 	0.435	0.1437	0.935	0.079
Mof_C 	C 	0.4108	0.2098	0.9108	0.025
Mof_C 	C 	0.40056	0.23653	0.90056	-0.009
Mof_C 	C 	0.39144	0.25548	0.89144	-0.035
Mof_C 	C 	0.3794	0.28034	0.8794	0.054
Mof_C 	C 	0.35943	0.322	0.85943	0.126
Mof_C 	C 	0.57047	0.16138	0.07047	-0.033
Mof_H 	H 	0.565	0.1437	0.065	0.078
Mof_C 	C 	0.5892	0.2098	0.0892	0.025
Mof_C 	C 	0.59944	0.23653	0.09944	-0.01
Mof_C 	C 	0.60856	0.25548	0.10856	-0.035
Mof_C 	C 	0.6206	0.28034	0.1206	0.054
Mof_C 	C 	0.64057	0.322	0.14057	0.127
Mof_C 	C 	0.57047	0.66138	0.57047	-0.033
Mof_H 	H 	0.565	0.6437	0.565	0.079
Mof_C 	C 	0.5892	0.7098	0.5892	0.025
Mof_C 	C 	0.59944	0.73653	0.59944	-0.009
Mof_C 	C 	0.60856	0.75548	0.60856	-0.035
Mof_C 	C 	0.6206	0.78034	0.6206	0.054
Mof_C 	C 	0.64057	0.822	0.64057	0.126
Mof_C 	C 	0.42953	0.33862	0.57047	-0.033
Mof_H 	H 	0.435	0.3563	0.565	0.079
Mof_C 	C 	0.4108	0.2902	0.5892	0.025
Mof_C 	C 	0.40056	0.26347	0.59944	-0.009
Mof_C 	C 	0.39144	0.24452	0.60856	-0.035
Mof_C 	C 	0.3794	0.21966	0.6206	0.054
Mof_C 	C 	0.35943	0.178	0.64057	0.127
Mof_C 	C 	0.33862	0.07047	0.92953	-0.033
Mof_H 	H 	0.3563	0.065	0.935	0.079
Mof_C 	C 	0.2902	0.0892	0.9108	0.025
Mof_C 	C 	0.26347	0.09944	0.90056	-0.009
Mof_C 	C 	0.24452	0.10856	0.89144	-0.035
Mof_C 	C 	0.21966	0.1206	0.8794	0.054
Mof_C 	C 	0.178	0.14057	0.85943	0.126
Mof_C 	C 	0.16138	0.07047	0.57047	-0.033
Mof_H 	H 	0.1437	0.065	0.565	0.078
Mof_C 	C 	0.2098	0.0892	0.5892	0.025
Mof_C 	C 	0.23653	0.09944	0.59944	-0.01
Mof_C 	C 	0.25548	0.10856	0.60856	-0.035
Mof_C 	C 	0.28034	0.1206	0.6206	0.054
Mof_C 	C 	0.322	0.14057	0.64057	0.127
Mof_C 	C 	0.16138	0.92953	0.42953	-0.033
Mof_H 	H 	0.1437	0.935	0.435	0.079
Mof_C 	C 	0.2098	0.9108	0.4108	0.025
Mof_C 	C 	0.23653	0.90056	0.40056	-0.009
Mof_C 	C 	0.25548	0.89144	0.39144	-0.035
Mof_C 	C 	0.28034	0.8794	0.3794	0.054
Mof_C 	C 	0.322	0.85943	0.35943	0.126
Mof_C 	C 	0.66138	0.92953	0.92953	-0.033
Mof_H 	H 	0.6437	0.935	0.935	0.079
Mof_C 	C 	0.7098	0.9108	0.9108	0.025
Mof_C 	C 	0.73653	0.90056	0.90056	-0.009
Mof_C 	C 	0.75548	0.89144	0.89144	-0.035
Mof_C 	C 	0.78034	0.8794	0.8794	0.054
Mof_C 	C 	0.822	0.85943	0.85943	0.126
Mof_C 	C 	0.83862	0.92953	0.57047	-0.033
Mof_H 	H 	0.8563	0.935	0.565	0.079
Mof_C 	C 	0.7902	0.9108	0.5892	0.025
Mof_C 	C 	0.76347	0.90056	0.59944	-0.009
Mof_C 	C 	0.74452	0.89144	0.60856	-0.035
Mof_C 	C 	0.71966	0.8794	0.6206	0.054
Mof_C 	C 	0.678	0.85943	0.64057	0.126
Mof_C 	C 	0.33862	0.92953	0.07047	-0.033
Mof_H 	H 	0.3563	0.935	0.065	0.079
Mof_C 	C 	0.2902	0.9108	0.0892	0.025
Mof_C 	C 	0.26347	0.90056	0.09944	-0.009
Mof_C 	C 	0.24452	0.89144	0.10856	-0.035
Mof_C 	C 	0.21966	0.8794	0.1206	0.054
Mof_C 	C 	0.178	0.85943	0.14057	0.126
Mof_C 	C 	0.07047	0.57047	0.16138	-0.033
Mof_H 	H 	0.065	0.565	0.1437	0.078
Mof_C 	C 	0.0892	0.5892	0.2098	0.025
Mof_C 	C 	0.09944	0.59944	0.23653	-0.01
Mof_C 	C 	0.10856	0.60856	0.25548	-0.035
Mof_C 	C 	0.1206	0.6206	0.28034	0.054
Mof_C 	C 	0.14057	0.64057	0.322	0.127
Mof_C 	C 	0.07047	0.92953	0.33862	-0.033
Mof_H 	H 	0.065	0.935	0.3563	0.079
Mof_C 	C 	0.0892	0.9108	0.2902	0.025
Mof_C 	C 	0.09944	0.90056	0.26347	-0.009
Mof_C 	C 	0.10856	0.89144	0.24452	-0.035
Mof_C 	C 	0.1206	0.8794	0.21966	0.054
Mof_C 	C 	0.14057	0.85943	0.178	0.126
Mof_C 	C 	0.92953	0.57047	0.83862	-0.033
Mof_H 	H 	0.935	0.565	0.8563	0.079
Mof_C 	C 	0.9108	0.5892	0.7902	0.025
Mof_C 	C 	0.90056	0.59944	0.76347	-0.009
Mof_C 	C 	0.89144	0.60856	0.74452	-0.035
Mof_C 	C 	0.8794	0.6206	0.71966	0.054
Mof_C 	C 	0.85943	0.64057	0.678	0.126
Mof_C 	C 	0.92953	0.07047	0.33862	-0.033
Mof_H 	H 	0.935	0.065	0.3563	0.079
Mof_C 	C 	0.9108	0.0892	0.2902	0.025
Mof_C 	C 	0.90056	0.09944	0.26347	-0.009
Mof_C 	C 	0.89144	0.10856	0.24452	-0.035
Mof_C 	C 	0.8794	0.1206	0.21966	0.054
Mof_C 	C 	0.85943	0.14057	0.178	0.126
Mof_C 	C 	0.92953	0.42953	0.16138	-0.033
Mof_H 	H 	0.935	0.435	0.1437	0.079
Mof_C 	C 	0.9108	0.4108	0.2098	0.025
Mof_C 	C 	0.90056	0.40056	0.23653	-0.009
Mof_C 	C 	0.89144	0.39144	0.25548	-0.035
Mof_C 	C 	0.8794	0.3794	0.28034	0.054
Mof_C 	C 	0.85943	0.35943	0.322	0.126
Mof_C 	C 	0.92953	0.92953	0.66138	-0.033
Mof_H 	H 	0.935	0.935	0.6437	0.079
Mof_C 	C 	0.9108	0.9108	0.7098	0.025
Mof_C 	C 	0.90056	0.90056	0.73653	-0.009
Mof_C 	C 	0.89144	0.89144	0.75548	-0.035
Mof_C 	C 	0.8794	0.8794	0.78034	0.054
Mof_C 	C 	0.85943	0.85943	0.822	0.126
Mof_N 	N 	0.347	0.347	0.847	-0.156
Mof_N 	N 	0.653	0.653	0.847	-0.156
Mof_N 	N 	0.653	0.153	0.347	-0.156
Mof_N 	N 	0.153	0.653	0.347	-0.156
Mof_N 	N 	0.653	0.347	0.153	-0.156
Mof_N 	N 	0.153	0.847	0.153	-0.156
Mof_N 	N 	0.347	0.653	0.153	-0.156
Mof_N 	N 	0.847	0.347	0.347	-0.156
Mof_N 	N 	0.847	0.847	0.847	-0.156
Mof_N 	N 	0.847	0.653	0.653	-0.156
Mof_N 	N 	0.847	0.153	0.153	-0.156
Mof_N 	N 	0.347	0.153	0.653	-0.156
Mof_N 	N 	0.153	0.153	0.847	-0.156
Mof_N 	N 	0.153	0.347	0.653	-0.156
Mof_N 	N 	0.347	0.847	0.347	-0.156
Mof_N 	N 	0.653	0.847	0.653	-0.156
Mof_N 	N 	0.347	0.347	0.153	-0.156
Mof_N 	N 	0.653	0.653	0.153	-0.156
Mof_N 	N 	0.153	0.153	0.153	-0.156
Mof_N 	N 	0.347	0.653	0.847	-0.156
Mof_N 	N 	0.347	0.153	0.347	-0.156
Mof_N 	N 	0.653	0.347	0.847	-0.156
Mof_N 	N 	0.153	0.347	0.347	-0.156
Mof_N 	N 	0.347	0.847	0.653	-0.156
Mof_N 	N 	0.653	0.847	0.347	-0.156
Mof_N 	N 	0.653	0.153	0.653	-0.156
Mof_N 	N 	0.847	0.347	0.653	-0.156
Mof_N 	N 	0.847	0.847	0.153	-0.156
Mof_N 	N 	0.847	0.653	0.347	-0.156
Mof_N 	N 	0.847	0.153	0.847	-0.156
Mof_N 	N 	0.153	0.847	0.847	-0.156
Mof_N 	N 	0.153	0.653	0.653	-0.156
_end
