data_functionalizedCrystal
_audit_creation_method	'EQeq! by Chris Wilmer'
_symmetry_space_group_name_H-M	'P1'
_symmetry_Int_Tables_number	1
_symmetry_cell_setting	triclinic
loop_
_symmetry_equiv_pos_as_xyz
  x,y,z
_cell_length_a	34.351
_cell_length_b	34.351
_cell_length_c	14.71
_cell_angle_alpha	90
_cell_angle_beta	90
_cell_angle_gamma	90
loop_
_atom_site_label
_atom_site_type_symbol
_atom_site_fract_x
_atom_site_fract_y
_atom_site_fract_z
_atom_site_charge
Mof_O 	O 	0.2496	0.67	0.173	-0.664
Mof_O 	O 	0.1945	0.6594	0.0903	-0.639
Mof_O 	O 	0.2128	0.3625	0.4108	-0.613
Mof_O 	O 	0.2136	0.7364	0.1157	-1.417
Mof_H 	H 	0.2056	0.7286	0.1767	0.271
Mof_O 	O 	0.2743	0.3531	0.3281	-0.609
Mof_C 	C 	0.2229	0.649	0.146	0.487
Mof_C 	C 	0.2223	0.6084	0.179	-0.16
Mof_C 	C 	0.2498	0.5955	0.2416	0.068
Mof_H 	H 	0.2671	0.6138	0.2699	0.017
Mof_C 	C 	0.2522	0.5562	0.2631	-0.133
Mof_H 	H 	0.2711	0.5473	0.3063	0.068
Mof_C 	C 	0.2271	0.5297	0.2222	0.066
Mof_C 	C 	0.1996	0.5426	0.1596	-0.058
Mof_C 	C 	0.1972	0.5819	0.1381	0.032
Mof_H 	H 	0.1783	0.5908	0.0949	0.028
Mof_C 	C 	0.2298	0.4889	0.2507	-0.08
Mof_C 	C 	0.2583	0.4644	0.2153	-0.015
Mof_H 	H 	0.2752	0.4735	0.1681	0.028
Mof_C 	C 	0.2621	0.4267	0.2483	-0.046
Mof_H 	H 	0.2818	0.4098	0.2238	0.054
Mof_C 	C 	0.2375	0.4134	0.3167	-0.027
Mof_C 	C 	0.2091	0.4379	0.3521	-0.113
Mof_H 	H 	0.1921	0.4287	0.3993	0.081
Mof_C 	C 	0.2052	0.4756	0.3191	0.139
Mof_C 	C 	0.1799	0.5033	0.3908	-0.564
Mof_H 	H 	0.1652	0.487	0.4313	0.181
Mof_H 	H 	0.1974	0.5192	0.4254	0.188
Mof_H 	H 	0.1624	0.5196	0.3571	0.194
Mof_C 	C 	0.2409	0.3733	0.3541	0.325
Mof_O 	O 	0.7504	0.33	0.173	-0.665
Mof_O 	O 	0.8055	0.3406	0.0903	-0.64
Mof_O 	O 	0.7872	0.6375	0.4108	-0.614
Mof_O 	O 	0.7864	0.2636	0.1157	-1.418
Mof_H 	H 	0.7944	0.2714	0.1767	0.27
Mof_O 	O 	0.7257	0.6469	0.3281	-0.61
Mof_C 	C 	0.7771	0.351	0.146	0.486
Mof_C 	C 	0.7777	0.3916	0.179	-0.161
Mof_C 	C 	0.7502	0.4045	0.2416	0.067
Mof_H 	H 	0.7329	0.3862	0.2699	0.016
Mof_C 	C 	0.7478	0.4438	0.2631	-0.133
Mof_H 	H 	0.7289	0.4527	0.3063	0.068
Mof_C 	C 	0.7729	0.4703	0.2222	0.066
Mof_C 	C 	0.8004	0.4574	0.1596	-0.058
Mof_C 	C 	0.8028	0.4181	0.1381	0.032
Mof_H 	H 	0.8217	0.4092	0.0949	0.028
Mof_C 	C 	0.7702	0.5111	0.2507	-0.08
Mof_C 	C 	0.7417	0.5356	0.2153	-0.015
Mof_H 	H 	0.7248	0.5265	0.1681	0.028
Mof_C 	C 	0.7379	0.5733	0.2483	-0.046
Mof_H 	H 	0.7182	0.5902	0.2238	0.054
Mof_C 	C 	0.7625	0.5866	0.3167	-0.027
Mof_C 	C 	0.7909	0.5621	0.3521	-0.113
Mof_H 	H 	0.8079	0.5713	0.3993	0.081
Mof_C 	C 	0.7948	0.5244	0.3191	0.139
Mof_C 	C 	0.8201	0.4967	0.3908	-0.564
Mof_H 	H 	0.8348	0.513	0.4313	0.181
Mof_H 	H 	0.8026	0.4808	0.4254	0.188
Mof_H 	H 	0.8376	0.4804	0.3571	0.194
Mof_C 	C 	0.7591	0.6267	0.3541	0.325
Mof_O 	O 	0.83	0.7496	0.673	-0.662
Mof_O 	O 	0.8406	0.6945	0.5903	-0.631
Mof_O 	O 	0.1375	0.7128	0.9108	-0.599
Mof_O 	O 	0.7636	0.7136	0.6157	-1.416
Mof_H 	H 	0.7714	0.7056	0.6767	0.27
Mof_O 	O 	0.1469	0.7743	0.8281	-0.602
Mof_C 	C 	0.851	0.7229	0.646	0.485
Mof_C 	C 	0.8916	0.7223	0.679	-0.154
Mof_C 	C 	0.9045	0.7498	0.7416	0.067
Mof_H 	H 	0.8862	0.7671	0.7699	0.021
Mof_C 	C 	0.9438	0.7522	0.7631	-0.13
Mof_H 	H 	0.9527	0.7711	0.8063	0.073
Mof_C 	C 	0.9703	0.7271	0.7222	0.067
Mof_C 	C 	0.9574	0.6996	0.6596	-0.047
Mof_C 	C 	0.9181	0.6972	0.6381	0.03
Mof_H 	H 	0.9092	0.6783	0.5949	0.038
Mof_C 	C 	0.0111	0.7298	0.7507	-0.083
Mof_C 	C 	0.0356	0.7583	0.7153	-0.008
Mof_H 	H 	0.0265	0.7752	0.6681	0.032
Mof_C 	C 	0.0733	0.7621	0.7483	-0.048
Mof_H 	H 	0.0902	0.7818	0.7238	0.059
Mof_C 	C 	0.0866	0.7375	0.8167	-0.018
Mof_C 	C 	0.0621	0.7091	0.8521	-0.119
Mof_H 	H 	0.0713	0.6921	0.8993	0.09
Mof_C 	C 	0.0244	0.7052	0.8191	0.154
Mof_C 	C 	0.9967	0.6799	0.8908	-0.599
Mof_H 	H 	0.013	0.6652	0.9313	0.204
Mof_H 	H 	0.9808	0.6974	0.9254	0.209
Mof_H 	H 	0.9804	0.6624	0.8571	0.21
Mof_C 	C 	0.1267	0.7409	0.8541	0.327
Mof_O 	O 	0.17	0.2504	0.673	-0.662
Mof_O 	O 	0.1594	0.3055	0.5903	-0.631
Mof_O 	O 	0.8625	0.2872	0.9108	-0.599
Mof_O 	O 	0.2364	0.2864	0.6157	-1.416
Mof_H 	H 	0.2286	0.2944	0.6767	0.27
Mof_O 	O 	0.8531	0.2257	0.8281	-0.602
Mof_C 	C 	0.149	0.2771	0.646	0.485
Mof_C 	C 	0.1084	0.2777	0.679	-0.154
Mof_C 	C 	0.0955	0.2502	0.7416	0.067
Mof_H 	H 	0.1138	0.2329	0.7699	0.021
Mof_C 	C 	0.0562	0.2478	0.7631	-0.13
Mof_H 	H 	0.0473	0.2289	0.8063	0.073
Mof_C 	C 	0.0297	0.2729	0.7222	0.067
Mof_C 	C 	0.0426	0.3004	0.6596	-0.047
Mof_C 	C 	0.0819	0.3028	0.6381	0.03
Mof_H 	H 	0.0908	0.3217	0.5949	0.038
Mof_C 	C 	0.9889	0.2702	0.7507	-0.083
Mof_C 	C 	0.9644	0.2417	0.7153	-0.008
Mof_H 	H 	0.9735	0.2248	0.6681	0.032
Mof_C 	C 	0.9267	0.2379	0.7483	-0.048
Mof_H 	H 	0.9098	0.2182	0.7238	0.059
Mof_C 	C 	0.9134	0.2625	0.8167	-0.018
Mof_C 	C 	0.9379	0.2909	0.8521	-0.119
Mof_H 	H 	0.9287	0.3079	0.8993	0.09
Mof_C 	C 	0.9756	0.2948	0.8191	0.154
Mof_C 	C 	0.0033	0.3201	0.8908	-0.599
Mof_H 	H 	0.987	0.3348	0.9313	0.204
Mof_H 	H 	0.0192	0.3026	0.9254	0.209
Mof_H 	H 	0.0196	0.3376	0.8571	0.21
Mof_C 	C 	0.8733	0.2591	0.8541	0.327
Mof_O 	O 	0.2504	0.17	0.327	-0.665
Mof_O 	O 	0.3055	0.1594	0.4097	-0.632
Mof_O 	O 	0.2872	0.8625	0.0892	-0.623
Mof_O 	O 	0.2864	0.2364	0.3843	-1.416
Mof_H 	H 	0.2944	0.2286	0.3233	0.269
Mof_O 	O 	0.2257	0.8531	0.1719	-0.609
Mof_C 	C 	0.2771	0.149	0.354	0.484
Mof_C 	C 	0.2777	0.1084	0.321	-0.156
Mof_C 	C 	0.2502	0.0955	0.2584	0.062
Mof_H 	H 	0.2329	0.1138	0.2301	0.016
Mof_C 	C 	0.2478	0.0562	0.2369	-0.128
Mof_H 	H 	0.2289	0.0473	0.1937	0.063
Mof_C 	C 	0.2729	0.0297	0.2778	0.06
Mof_C 	C 	0.3004	0.0426	0.3404	-0.046
Mof_C 	C 	0.3028	0.0819	0.3619	0.027
Mof_H 	H 	0.3217	0.0908	0.4051	0.037
Mof_C 	C 	0.2702	0.9889	0.2493	-0.07
Mof_C 	C 	0.2417	0.9644	0.2847	-0.021
Mof_H 	H 	0.2248	0.9735	0.3319	0.035
Mof_C 	C 	0.2379	0.9267	0.2517	-0.039
Mof_H 	H 	0.2182	0.9098	0.2762	0.055
Mof_C 	C 	0.2625	0.9134	0.1833	-0.034
Mof_C 	C 	0.2909	0.9379	0.1479	-0.105
Mof_H 	H 	0.3079	0.9287	0.1007	0.072
Mof_C 	C 	0.2948	0.9756	0.1809	0.125
Mof_C 	C 	0.3201	0.0033	0.1092	-0.531
Mof_H 	H 	0.3348	0.987	0.0687	0.16
Mof_H 	H 	0.3026	0.0192	0.0746	0.167
Mof_H 	H 	0.3376	0.0196	0.1429	0.18
Mof_C 	C 	0.2591	0.8733	0.1459	0.328
Mof_O 	O 	0.7496	0.83	0.327	-0.665
Mof_O 	O 	0.6945	0.8406	0.4097	-0.632
Mof_O 	O 	0.7128	0.1375	0.0892	-0.623
Mof_O 	O 	0.7136	0.7636	0.3843	-1.416
Mof_H 	H 	0.7056	0.7714	0.3233	0.269
Mof_O 	O 	0.7743	0.1469	0.1719	-0.609
Mof_C 	C 	0.7229	0.851	0.354	0.484
Mof_C 	C 	0.7223	0.8916	0.321	-0.156
Mof_C 	C 	0.7498	0.9045	0.2584	0.062
Mof_H 	H 	0.7671	0.8862	0.2301	0.016
Mof_C 	C 	0.7522	0.9438	0.2369	-0.128
Mof_H 	H 	0.7711	0.9527	0.1937	0.063
Mof_C 	C 	0.7271	0.9703	0.2778	0.06
Mof_C 	C 	0.6996	0.9574	0.3404	-0.046
Mof_C 	C 	0.6972	0.9181	0.3619	0.027
Mof_H 	H 	0.6783	0.9092	0.4051	0.037
Mof_C 	C 	0.7298	0.0111	0.2493	-0.07
Mof_C 	C 	0.7583	0.0356	0.2847	-0.021
Mof_H 	H 	0.7752	0.0265	0.3319	0.035
Mof_C 	C 	0.7621	0.0733	0.2517	-0.039
Mof_H 	H 	0.7818	0.0902	0.2762	0.055
Mof_C 	C 	0.7375	0.0866	0.1833	-0.034
Mof_C 	C 	0.7091	0.0621	0.1479	-0.105
Mof_H 	H 	0.6921	0.0713	0.1007	0.072
Mof_C 	C 	0.7052	0.0244	0.1809	0.125
Mof_C 	C 	0.6799	0.9967	0.1092	-0.531
Mof_H 	H 	0.6652	0.013	0.0687	0.16
Mof_H 	H 	0.6974	0.9808	0.0746	0.167
Mof_H 	H 	0.6624	0.9804	0.1429	0.18
Mof_C 	C 	0.7409	0.1267	0.1459	0.328
Mof_O 	O 	0.67	0.2496	0.827	-0.657
Mof_O 	O 	0.6594	0.1945	0.9097	-0.617
Mof_O 	O 	0.3625	0.2128	0.5892	-0.613
Mof_O 	O 	0.7364	0.2136	0.8843	-1.4
Mof_H 	H 	0.7286	0.2056	0.8233	0.266
Mof_O 	O 	0.3531	0.2743	0.6719	-0.606
Mof_C 	C 	0.649	0.2229	0.854	0.485
Mof_C 	C 	0.6084	0.2223	0.821	-0.148
Mof_C 	C 	0.5955	0.2498	0.7584	0.062
Mof_H 	H 	0.6138	0.2671	0.7301	0.02
Mof_C 	C 	0.5562	0.2522	0.7369	-0.124
Mof_H 	H 	0.5473	0.2711	0.6937	0.067
Mof_C 	C 	0.5297	0.2271	0.7778	0.061
Mof_C 	C 	0.5426	0.1996	0.8404	-0.035
Mof_C 	C 	0.5819	0.1972	0.8619	0.025
Mof_H 	H 	0.5908	0.1783	0.9051	0.047
Mof_C 	C 	0.4889	0.2298	0.7493	-0.072
Mof_C 	C 	0.4644	0.2583	0.7847	-0.015
Mof_H 	H 	0.4735	0.2752	0.8319	0.04
Mof_C 	C 	0.4267	0.2621	0.7517	-0.041
Mof_H 	H 	0.4098	0.2818	0.7762	0.06
Mof_C 	C 	0.4134	0.2375	0.6833	-0.026
Mof_C 	C 	0.4379	0.2091	0.6479	-0.111
Mof_H 	H 	0.4287	0.1921	0.6007	0.081
Mof_C 	C 	0.4756	0.2052	0.6809	0.14
Mof_C 	C 	0.5033	0.1799	0.6092	-0.565
Mof_H 	H 	0.487	0.1652	0.5687	0.182
Mof_H 	H 	0.5192	0.1974	0.5746	0.188
Mof_H 	H 	0.5196	0.1624	0.6429	0.196
Mof_C 	C 	0.3733	0.2409	0.6459	0.327
Mof_O 	O 	0.33	0.7504	0.827	-0.657
Mof_O 	O 	0.3406	0.8055	0.9097	-0.617
Mof_O 	O 	0.6375	0.7872	0.5892	-0.613
Mof_O 	O 	0.2636	0.7864	0.8843	-1.4
Mof_H 	H 	0.2714	0.7944	0.8233	0.266
Mof_O 	O 	0.6469	0.7257	0.6719	-0.606
Mof_C 	C 	0.351	0.7771	0.854	0.485
Mof_C 	C 	0.3916	0.7777	0.821	-0.148
Mof_C 	C 	0.4045	0.7502	0.7584	0.062
Mof_H 	H 	0.3862	0.7329	0.7301	0.02
Mof_C 	C 	0.4438	0.7478	0.7369	-0.124
Mof_H 	H 	0.4527	0.7289	0.6937	0.067
Mof_C 	C 	0.4703	0.7729	0.7778	0.061
Mof_C 	C 	0.4574	0.8004	0.8404	-0.035
Mof_C 	C 	0.4181	0.8028	0.8619	0.025
Mof_H 	H 	0.4092	0.8217	0.9051	0.047
Mof_C 	C 	0.5111	0.7702	0.7493	-0.072
Mof_C 	C 	0.5356	0.7417	0.7847	-0.015
Mof_H 	H 	0.5265	0.7248	0.8319	0.04
Mof_C 	C 	0.5733	0.7379	0.7517	-0.041
Mof_H 	H 	0.5902	0.7182	0.7762	0.06
Mof_C 	C 	0.5866	0.7625	0.6833	-0.026
Mof_C 	C 	0.5621	0.7909	0.6479	-0.111
Mof_H 	H 	0.5713	0.8079	0.6007	0.081
Mof_C 	C 	0.5244	0.7948	0.6809	0.14
Mof_C 	C 	0.4967	0.8201	0.6092	-0.565
Mof_H 	H 	0.513	0.8348	0.5687	0.182
Mof_H 	H 	0.4808	0.8026	0.5746	0.188
Mof_H 	H 	0.4804	0.8376	0.6429	0.196
Mof_C 	C 	0.6267	0.7591	0.6459	0.327
Mof_O 	O 	0.7504	0.33	0.827	-0.657
Mof_O 	O 	0.8055	0.3406	0.9097	-0.617
Mof_O 	O 	0.7872	0.6375	0.5892	-0.613
Mof_O 	O 	0.7864	0.2636	0.8843	-1.4
Mof_H 	H 	0.7944	0.2714	0.8233	0.266
Mof_O 	O 	0.7257	0.6469	0.6719	-0.606
Mof_C 	C 	0.7771	0.351	0.854	0.485
Mof_C 	C 	0.7777	0.3916	0.821	-0.148
Mof_C 	C 	0.7502	0.4045	0.7584	0.062
Mof_H 	H 	0.7329	0.3862	0.7301	0.02
Mof_C 	C 	0.7478	0.4438	0.7369	-0.124
Mof_H 	H 	0.7289	0.4527	0.6937	0.067
Mof_C 	C 	0.7729	0.4703	0.7778	0.061
Mof_C 	C 	0.8004	0.4574	0.8404	-0.035
Mof_C 	C 	0.8028	0.4181	0.8619	0.025
Mof_H 	H 	0.8217	0.4092	0.9051	0.047
Mof_C 	C 	0.7702	0.5111	0.7493	-0.072
Mof_C 	C 	0.7417	0.5356	0.7847	-0.015
Mof_H 	H 	0.7248	0.5265	0.8319	0.04
Mof_C 	C 	0.7379	0.5733	0.7517	-0.041
Mof_H 	H 	0.7182	0.5902	0.7762	0.06
Mof_C 	C 	0.7625	0.5866	0.6833	-0.026
Mof_C 	C 	0.7909	0.5621	0.6479	-0.111
Mof_H 	H 	0.8079	0.5713	0.6007	0.081
Mof_C 	C 	0.7948	0.5244	0.6809	0.14
Mof_C 	C 	0.8201	0.4967	0.6092	-0.565
Mof_H 	H 	0.8348	0.513	0.5687	0.182
Mof_H 	H 	0.8026	0.4808	0.5746	0.188
Mof_H 	H 	0.8376	0.4804	0.6429	0.196
Mof_C 	C 	0.7591	0.6267	0.6459	0.327
Mof_O 	O 	0.2496	0.67	0.827	-0.657
Mof_O 	O 	0.1945	0.6594	0.9097	-0.617
Mof_O 	O 	0.2128	0.3625	0.5892	-0.613
Mof_O 	O 	0.2136	0.7364	0.8843	-1.4
Mof_H 	H 	0.2056	0.7286	0.8233	0.266
Mof_O 	O 	0.2743	0.3531	0.6719	-0.606
Mof_C 	C 	0.2229	0.649	0.854	0.485
Mof_C 	C 	0.2223	0.6084	0.821	-0.148
Mof_C 	C 	0.2498	0.5955	0.7584	0.062
Mof_H 	H 	0.2671	0.6138	0.7301	0.02
Mof_C 	C 	0.2522	0.5562	0.7369	-0.124
Mof_H 	H 	0.2711	0.5473	0.6937	0.067
Mof_C 	C 	0.2271	0.5297	0.7778	0.061
Mof_C 	C 	0.1996	0.5426	0.8404	-0.035
Mof_C 	C 	0.1972	0.5819	0.8619	0.025
Mof_H 	H 	0.1783	0.5908	0.9051	0.047
Mof_C 	C 	0.2298	0.4889	0.7493	-0.072
Mof_C 	C 	0.2583	0.4644	0.7847	-0.015
Mof_H 	H 	0.2752	0.4735	0.8319	0.04
Mof_C 	C 	0.2621	0.4267	0.7517	-0.041
Mof_H 	H 	0.2818	0.4098	0.7762	0.06
Mof_C 	C 	0.2375	0.4134	0.6833	-0.026
Mof_C 	C 	0.2091	0.4379	0.6479	-0.111
Mof_H 	H 	0.1921	0.4287	0.6007	0.081
Mof_C 	C 	0.2052	0.4756	0.6809	0.14
Mof_C 	C 	0.1799	0.5033	0.6092	-0.565
Mof_H 	H 	0.1652	0.487	0.5687	0.182
Mof_H 	H 	0.1974	0.5192	0.5746	0.188
Mof_H 	H 	0.1624	0.5196	0.6429	0.196
Mof_C 	C 	0.2409	0.3733	0.6459	0.327
Mof_O 	O 	0.17	0.2504	0.327	-0.665
Mof_O 	O 	0.1594	0.3055	0.4097	-0.632
Mof_O 	O 	0.8625	0.2872	0.0892	-0.623
Mof_O 	O 	0.2364	0.2864	0.3843	-1.416
Mof_H 	H 	0.2286	0.2944	0.3233	0.269
Mof_O 	O 	0.8531	0.2257	0.1719	-0.609
Mof_C 	C 	0.149	0.2771	0.354	0.484
Mof_C 	C 	0.1084	0.2777	0.321	-0.156
Mof_C 	C 	0.0955	0.2502	0.2584	0.062
Mof_H 	H 	0.1138	0.2329	0.2301	0.016
Mof_C 	C 	0.0562	0.2478	0.2369	-0.128
Mof_H 	H 	0.0473	0.2289	0.1937	0.063
Mof_C 	C 	0.0297	0.2729	0.2778	0.06
Mof_C 	C 	0.0426	0.3004	0.3404	-0.046
Mof_C 	C 	0.0819	0.3028	0.3619	0.027
Mof_H 	H 	0.0908	0.3217	0.4051	0.037
Mof_C 	C 	0.9889	0.2702	0.2493	-0.07
Mof_C 	C 	0.9644	0.2417	0.2847	-0.021
Mof_H 	H 	0.9735	0.2248	0.3319	0.035
Mof_C 	C 	0.9267	0.2379	0.2517	-0.039
Mof_H 	H 	0.9098	0.2182	0.2762	0.055
Mof_C 	C 	0.9134	0.2625	0.1833	-0.034
Mof_C 	C 	0.9379	0.2909	0.1479	-0.105
Mof_H 	H 	0.9287	0.3079	0.1007	0.072
Mof_C 	C 	0.9756	0.2948	0.1809	0.125
Mof_C 	C 	0.0033	0.3201	0.1092	-0.531
Mof_H 	H 	0.987	0.3348	0.0687	0.16
Mof_H 	H 	0.0192	0.3026	0.0746	0.167
Mof_H 	H 	0.0196	0.3376	0.1429	0.18
Mof_C 	C 	0.8733	0.2591	0.1459	0.328
Mof_O 	O 	0.83	0.7496	0.327	-0.665
Mof_O 	O 	0.8406	0.6945	0.4097	-0.632
Mof_O 	O 	0.1375	0.7128	0.0892	-0.623
Mof_O 	O 	0.7636	0.7136	0.3843	-1.416
Mof_H 	H 	0.7714	0.7056	0.3233	0.269
Mof_O 	O 	0.1469	0.7743	0.1719	-0.609
Mof_C 	C 	0.851	0.7229	0.354	0.484
Mof_C 	C 	0.8916	0.7223	0.321	-0.156
Mof_C 	C 	0.9045	0.7498	0.2584	0.062
Mof_H 	H 	0.8862	0.7671	0.2301	0.016
Mof_C 	C 	0.9438	0.7522	0.2369	-0.128
Mof_H 	H 	0.9527	0.7711	0.1937	0.063
Mof_C 	C 	0.9703	0.7271	0.2778	0.06
Mof_C 	C 	0.9574	0.6996	0.3404	-0.046
Mof_C 	C 	0.9181	0.6972	0.3619	0.027
Mof_H 	H 	0.9092	0.6783	0.4051	0.037
Mof_C 	C 	0.0111	0.7298	0.2493	-0.07
Mof_C 	C 	0.0356	0.7583	0.2847	-0.021
Mof_H 	H 	0.0265	0.7752	0.3319	0.035
Mof_C 	C 	0.0733	0.7621	0.2517	-0.039
Mof_H 	H 	0.0902	0.7818	0.2762	0.055
Mof_C 	C 	0.0866	0.7375	0.1833	-0.034
Mof_C 	C 	0.0621	0.7091	0.1479	-0.105
Mof_H 	H 	0.0713	0.6921	0.1007	0.072
Mof_C 	C 	0.0244	0.7052	0.1809	0.125
Mof_C 	C 	0.9967	0.6799	0.1092	-0.531
Mof_H 	H 	0.013	0.6652	0.0687	0.16
Mof_H 	H 	0.9808	0.6974	0.0746	0.167
Mof_H 	H 	0.9804	0.6624	0.1429	0.18
Mof_C 	C 	0.1267	0.7409	0.1459	0.328
Mof_O 	O 	0.7496	0.83	0.673	-0.662
Mof_O 	O 	0.6945	0.8406	0.5903	-0.631
Mof_O 	O 	0.7128	0.1375	0.9108	-0.599
Mof_O 	O 	0.7136	0.7636	0.6157	-1.416
Mof_H 	H 	0.7056	0.7714	0.6767	0.27
Mof_O 	O 	0.7743	0.1469	0.8281	-0.602
Mof_C 	C 	0.7229	0.851	0.646	0.485
Mof_C 	C 	0.7223	0.8916	0.679	-0.154
Mof_C 	C 	0.7498	0.9045	0.7416	0.067
Mof_H 	H 	0.7671	0.8862	0.7699	0.021
Mof_C 	C 	0.7522	0.9438	0.7631	-0.13
Mof_H 	H 	0.7711	0.9527	0.8063	0.073
Mof_C 	C 	0.7271	0.9703	0.7222	0.067
Mof_C 	C 	0.6996	0.9574	0.6596	-0.047
Mof_C 	C 	0.6972	0.9181	0.6381	0.03
Mof_H 	H 	0.6783	0.9092	0.5949	0.038
Mof_C 	C 	0.7298	0.0111	0.7507	-0.083
Mof_C 	C 	0.7583	0.0356	0.7153	-0.008
Mof_H 	H 	0.7752	0.0265	0.6681	0.032
Mof_C 	C 	0.7621	0.0733	0.7483	-0.048
Mof_H 	H 	0.7818	0.0902	0.7238	0.059
Mof_C 	C 	0.7375	0.0866	0.8167	-0.018
Mof_C 	C 	0.7091	0.0621	0.8521	-0.119
Mof_H 	H 	0.6921	0.0713	0.8993	0.09
Mof_C 	C 	0.7052	0.0244	0.8191	0.154
Mof_C 	C 	0.6799	0.9967	0.8908	-0.599
Mof_H 	H 	0.6652	0.013	0.9313	0.204
Mof_H 	H 	0.6974	0.9808	0.9254	0.209
Mof_H 	H 	0.6624	0.9804	0.8571	0.21
Mof_C 	C 	0.7409	0.1267	0.8541	0.327
Mof_O 	O 	0.2504	0.17	0.673	-0.662
Mof_O 	O 	0.3055	0.1594	0.5903	-0.631
Mof_O 	O 	0.2872	0.8625	0.9108	-0.599
Mof_O 	O 	0.2864	0.2364	0.6157	-1.416
Mof_H 	H 	0.2944	0.2286	0.6767	0.27
Mof_O 	O 	0.2257	0.8531	0.8281	-0.602
Mof_C 	C 	0.2771	0.149	0.646	0.485
Mof_C 	C 	0.2777	0.1084	0.679	-0.154
Mof_C 	C 	0.2502	0.0955	0.7416	0.067
Mof_H 	H 	0.2329	0.1138	0.7699	0.021
Mof_C 	C 	0.2478	0.0562	0.7631	-0.13
Mof_H 	H 	0.2289	0.0473	0.8063	0.073
Mof_C 	C 	0.2729	0.0297	0.7222	0.067
Mof_C 	C 	0.3004	0.0426	0.6596	-0.047
Mof_C 	C 	0.3028	0.0819	0.6381	0.03
Mof_H 	H 	0.3217	0.0908	0.5949	0.038
Mof_C 	C 	0.2702	0.9889	0.7507	-0.083
Mof_C 	C 	0.2417	0.9644	0.7153	-0.008
Mof_H 	H 	0.2248	0.9735	0.6681	0.032
Mof_C 	C 	0.2379	0.9267	0.7483	-0.048
Mof_H 	H 	0.2182	0.9098	0.7238	0.059
Mof_C 	C 	0.2625	0.9134	0.8167	-0.018
Mof_C 	C 	0.2909	0.9379	0.8521	-0.119
Mof_H 	H 	0.3079	0.9287	0.8993	0.09
Mof_C 	C 	0.2948	0.9756	0.8191	0.154
Mof_C 	C 	0.3201	0.0033	0.8908	-0.599
Mof_H 	H 	0.3348	0.987	0.9313	0.204
Mof_H 	H 	0.3026	0.0192	0.9254	0.209
Mof_H 	H 	0.3376	0.0196	0.8571	0.21
Mof_C 	C 	0.2591	0.8733	0.8541	0.327
Mof_O 	O 	0.33	0.7504	0.173	-0.665
Mof_O 	O 	0.3406	0.8055	0.0903	-0.64
Mof_O 	O 	0.6375	0.7872	0.4108	-0.614
Mof_O 	O 	0.2636	0.7864	0.1157	-1.418
Mof_H 	H 	0.2714	0.7944	0.1767	0.27
Mof_O 	O 	0.6469	0.7257	0.3281	-0.61
Mof_C 	C 	0.351	0.7771	0.146	0.486
Mof_C 	C 	0.3916	0.7777	0.179	-0.161
Mof_C 	C 	0.4045	0.7502	0.2416	0.067
Mof_H 	H 	0.3862	0.7329	0.2699	0.016
Mof_C 	C 	0.4438	0.7478	0.2631	-0.133
Mof_H 	H 	0.4527	0.7289	0.3063	0.068
Mof_C 	C 	0.4703	0.7729	0.2222	0.066
Mof_C 	C 	0.4574	0.8004	0.1596	-0.058
Mof_C 	C 	0.4181	0.8028	0.1381	0.032
Mof_H 	H 	0.4092	0.8217	0.0949	0.028
Mof_C 	C 	0.5111	0.7702	0.2507	-0.08
Mof_C 	C 	0.5356	0.7417	0.2153	-0.015
Mof_H 	H 	0.5265	0.7248	0.1681	0.028
Mof_C 	C 	0.5733	0.7379	0.2483	-0.046
Mof_H 	H 	0.5902	0.7182	0.2238	0.054
Mof_C 	C 	0.5866	0.7625	0.3167	-0.027
Mof_C 	C 	0.5621	0.7909	0.3521	-0.113
Mof_H 	H 	0.5713	0.8079	0.3993	0.081
Mof_C 	C 	0.5244	0.7948	0.3191	0.139
Mof_C 	C 	0.4967	0.8201	0.3908	-0.564
Mof_H 	H 	0.513	0.8348	0.4313	0.181
Mof_H 	H 	0.4808	0.8026	0.4254	0.188
Mof_H 	H 	0.4804	0.8376	0.3571	0.194
Mof_C 	C 	0.6267	0.7591	0.3541	0.325
Mof_O 	O 	0.67	0.2496	0.173	-0.665
Mof_O 	O 	0.6594	0.1945	0.0903	-0.64
Mof_O 	O 	0.3625	0.2128	0.4108	-0.614
Mof_O 	O 	0.7364	0.2136	0.1157	-1.418
Mof_H 	H 	0.7286	0.2056	0.1767	0.27
Mof_O 	O 	0.3531	0.2743	0.3281	-0.61
Mof_C 	C 	0.649	0.2229	0.146	0.486
Mof_C 	C 	0.6084	0.2223	0.179	-0.161
Mof_C 	C 	0.5955	0.2498	0.2416	0.067
Mof_H 	H 	0.6138	0.2671	0.2699	0.016
Mof_C 	C 	0.5562	0.2522	0.2631	-0.133
Mof_H 	H 	0.5473	0.2711	0.3063	0.068
Mof_C 	C 	0.5297	0.2271	0.2222	0.066
Mof_C 	C 	0.5426	0.1996	0.1596	-0.058
Mof_C 	C 	0.5819	0.1972	0.1381	0.032
Mof_H 	H 	0.5908	0.1783	0.0949	0.028
Mof_C 	C 	0.4889	0.2298	0.2507	-0.08
Mof_C 	C 	0.4644	0.2583	0.2153	-0.015
Mof_H 	H 	0.4735	0.2752	0.1681	0.028
Mof_C 	C 	0.4267	0.2621	0.2483	-0.046
Mof_H 	H 	0.4098	0.2818	0.2238	0.054
Mof_C 	C 	0.4134	0.2375	0.3167	-0.027
Mof_C 	C 	0.4379	0.2091	0.3521	-0.113
Mof_H 	H 	0.4287	0.1921	0.3993	0.081
Mof_C 	C 	0.4756	0.2052	0.3191	0.139
Mof_C 	C 	0.5033	0.1799	0.3908	-0.564
Mof_H 	H 	0.487	0.1652	0.4313	0.181
Mof_H 	H 	0.5192	0.1974	0.4254	0.188
Mof_H 	H 	0.5196	0.1624	0.3571	0.194
Mof_C 	C 	0.3733	0.2409	0.3541	0.325
Mof_Zr	Zr	0.274	0.726	0.1198	3.218
Mof_Zr	Zr	0.2022	0.7978	0.8808	3.214
Mof_O 	O 	0.1564	0.8436	0.919	-0.583
Mof_O 	O 	0.2142	0.7858	0.2649	-0.622
Mof_O 	O 	0.2628	0.7372	0.2633	-0.695
Mof_O 	O 	0.3205	0.6795	0.0925	-0.645
Mof_H 	H 	0.3233	0.6767	0.0362	0.177
Mof_C 	C 	0.2386	0.7614	0.306	0.344
Mof_C 	C 	0.2627	0.7373	0.461	-0.434
Mof_C 	C 	0.2389	0.7611	0.4085	-0.079
Mof_C 	C 	0.2132	0.7868	0.4503	-0.001
Mof_H 	H 	0.1965	0.8035	0.4158	0.047
Mof_C 	C 	0.2609	0.7391	0.5553	0.137
Mof_H 	H 	0.2773	0.7227	0.5914	1.331
Mof_N 	N 	0.2887	0.7113	0.4155	-1.65
Mof_H 	H 	0.2894	0.7106	0.3544	0.241
Mof_H 	H 	0.3044	0.6956	0.448	0.541
Mof_C 	C 	0.1014	0.8986	0.9181	0.068
Mof_H 	H 	0.1113	0.8887	0.8616	0.024
Mof_C 	C 	0.0728	0.9272	0.9181	-0.082
Mof_H 	H 	0.0629	0.9371	0.8616	0.018
Mof_C 	C 	0.0137	0.9863	0.9171	0.184
Mof_C 	C 	0.9851	0.0149	0.9149	0.089
Mof_O 	O 	0.0288	0.9712	0.8337	0.878
Mof_C 	C 	0.0095	0.9905	0.7602	-0.473
Mof_H 	H 	0.01925	0.98075	0.7035	0.122
Mof_H 	H 	0.9748	0.0252	0.8593	-0.848
Mof_Zr	Zr	0.726	0.274	0.1198	3.218
Mof_Zr	Zr	0.7978	0.2022	0.8808	3.214
Mof_O 	O 	0.8436	0.1564	0.919	-0.583
Mof_O 	O 	0.7858	0.2142	0.2649	-0.622
Mof_O 	O 	0.7372	0.2628	0.2633	-0.695
Mof_O 	O 	0.6795	0.3205	0.0925	-0.645
Mof_H 	H 	0.6767	0.3233	0.0362	0.177
Mof_C 	C 	0.7614	0.2386	0.306	0.344
Mof_C 	C 	0.7373	0.2627	0.461	-0.434
Mof_C 	C 	0.7611	0.2389	0.4085	-0.079
Mof_C 	C 	0.7868	0.2132	0.4503	-0.001
Mof_H 	H 	0.8035	0.1965	0.4158	0.047
Mof_C 	C 	0.7391	0.2609	0.5553	0.137
Mof_H 	H 	0.7227	0.2773	0.5914	1.331
Mof_N 	N 	0.7113	0.2887	0.4155	-1.65
Mof_H 	H 	0.7106	0.2894	0.3544	0.241
Mof_H 	H 	0.6956	0.3044	0.448	0.541
Mof_C 	C 	0.8986	0.1014	0.9181	0.068
Mof_H 	H 	0.8887	0.1113	0.8616	0.024
Mof_C 	C 	0.9272	0.0728	0.9181	-0.082
Mof_H 	H 	0.9371	0.0629	0.8616	0.018
Mof_C 	C 	0.9863	0.0137	0.9171	0.184
Mof_C 	C 	0.0149	0.9851	0.9149	0.089
Mof_O 	O 	0.9712	0.0288	0.8337	0.878
Mof_C 	C 	0.9905	0.0095	0.7602	-0.473
Mof_H 	H 	0.98075	0.01925	0.7035	0.122
Mof_H 	H 	0.0252	0.9748	0.8593	-0.848
Mof_Zr	Zr	0.774	0.774	0.6198	3.218
Mof_Zr	Zr	0.7022	0.7022	0.3808	3.212
Mof_O 	O 	0.6564	0.6564	0.419	-0.618
Mof_O 	O 	0.7142	0.7142	0.7649	-0.628
Mof_O 	O 	0.7628	0.7628	0.7633	-0.696
Mof_O 	O 	0.8205	0.8205	0.5925	-0.647
Mof_H 	H 	0.8233	0.8233	0.5362	0.198
Mof_C 	C 	0.7386	0.7386	0.806	0.382
Mof_C 	C 	0.7627	0.7627	0.961	-0.335
Mof_C 	C 	0.7389	0.7389	0.9085	-0.175
Mof_C 	C 	0.7132	0.7132	0.9503	0.122
Mof_H 	H 	0.6965	0.6965	0.9158	0.014
Mof_C 	C 	0.7609	0.7609	0.0553	0.044
Mof_H 	H 	0.7773	0.7773	0.0914	1.518
Mof_N 	N 	0.7887	0.7887	0.9155	-1.475
Mof_H 	H 	0.7894	0.7894	0.8544	0.235
Mof_H 	H 	0.8044	0.8044	0.948	0.495
Mof_C 	C 	0.6014	0.6014	0.4181	0.033
Mof_H 	H 	0.6113	0.6113	0.3616	0.028
Mof_C 	C 	0.5728	0.5728	0.4181	-0.117
Mof_H 	H 	0.5629	0.5629	0.3616	0.02
Mof_C 	C 	0.5137	0.5137	0.4171	0.174
Mof_C 	C 	0.4851	0.4851	0.4149	0.078
Mof_O 	O 	0.5288	0.5288	0.3337	0.901
Mof_C 	C 	0.5095	0.5095	0.2602	-0.475
Mof_H 	H 	0.51925	0.51925	0.2035	0.115
Mof_H 	H 	0.4748	0.4748	0.3593	-0.87
Mof_Zr	Zr	0.226	0.226	0.6198	3.218
Mof_Zr	Zr	0.2978	0.2978	0.3808	3.212
Mof_O 	O 	0.3436	0.3436	0.419	-0.618
Mof_O 	O 	0.2858	0.2858	0.7649	-0.628
Mof_O 	O 	0.2372	0.2372	0.7633	-0.696
Mof_O 	O 	0.1795	0.1795	0.5925	-0.647
Mof_H 	H 	0.1767	0.1767	0.5362	0.198
Mof_C 	C 	0.2614	0.2614	0.806	0.382
Mof_C 	C 	0.2373	0.2373	0.961	-0.335
Mof_C 	C 	0.2611	0.2611	0.9085	-0.175
Mof_C 	C 	0.2868	0.2868	0.9503	0.122
Mof_H 	H 	0.3035	0.3035	0.9158	0.014
Mof_C 	C 	0.2391	0.2391	0.0553	0.044
Mof_H 	H 	0.2227	0.2227	0.0914	1.518
Mof_N 	N 	0.2113	0.2113	0.9155	-1.475
Mof_H 	H 	0.2106	0.2106	0.8544	0.235
Mof_H 	H 	0.1956	0.1956	0.948	0.495
Mof_C 	C 	0.3986	0.3986	0.4181	0.033
Mof_H 	H 	0.3887	0.3887	0.3616	0.028
Mof_C 	C 	0.4272	0.4272	0.4181	-0.117
Mof_H 	H 	0.4371	0.4371	0.3616	0.02
Mof_C 	C 	0.4863	0.4863	0.4171	0.174
Mof_C 	C 	0.5149	0.5149	0.4149	0.078
Mof_O 	O 	0.4712	0.4712	0.3337	0.901
Mof_C 	C 	0.4905	0.4905	0.2602	-0.475
Mof_H 	H 	0.48075	0.48075	0.2035	0.115
Mof_H 	H 	0.5252	0.5252	0.3593	-0.87
Mof_Zr	Zr	0.226	0.226	0.3802	3.218
Mof_Zr	Zr	0.2978	0.2978	0.6192	3.212
Mof_O 	O 	0.3436	0.3436	0.581	-0.616
Mof_O 	O 	0.2858	0.2858	0.2351	-0.617
Mof_O 	O 	0.2372	0.2372	0.2367	-0.693
Mof_O 	O 	0.1795	0.1795	0.4075	-0.65
Mof_H 	H 	0.1767	0.1767	0.4638	0.199
Mof_C 	C 	0.2614	0.2614	0.194	0.307
Mof_C 	C 	0.2373	0.2373	0.039	-0.534
Mof_C 	C 	0.2611	0.2611	0.0915	0.017
Mof_C 	C 	0.2868	0.2868	0.0497	-0.125
Mof_H 	H 	0.3035	0.3035	0.0842	0.079
Mof_C 	C 	0.2391	0.2391	0.9447	0.231
Mof_H 	H 	0.2227	0.2227	0.9086	1.145
Mof_N 	N 	0.2113	0.2113	0.0845	-1.826
Mof_H 	H 	0.2106	0.2106	0.1456	0.247
Mof_H 	H 	0.1956	0.1956	0.052	0.589
Mof_C 	C 	0.3986	0.3986	0.5819	0.034
Mof_H 	H 	0.3887	0.3887	0.6384	0.032
Mof_C 	C 	0.4272	0.4272	0.5819	-0.116
Mof_H 	H 	0.4371	0.4371	0.6384	0.024
Mof_C 	C 	0.4863	0.4863	0.5829	0.173
Mof_C 	C 	0.5149	0.5149	0.5851	0.078
Mof_O 	O 	0.4712	0.4712	0.6663	0.893
Mof_C 	C 	0.4905	0.4905	0.7398	-0.481
Mof_H 	H 	0.48075	0.48075	0.7965	0.127
Mof_H 	H 	0.5252	0.5252	0.6407	-0.859
Mof_Zr	Zr	0.774	0.774	0.3802	3.218
Mof_Zr	Zr	0.7022	0.7022	0.6192	3.212
Mof_O 	O 	0.6564	0.6564	0.581	-0.616
Mof_O 	O 	0.7142	0.7142	0.2351	-0.617
Mof_O 	O 	0.7628	0.7628	0.2367	-0.693
Mof_O 	O 	0.8205	0.8205	0.4075	-0.65
Mof_H 	H 	0.8233	0.8233	0.4638	0.199
Mof_C 	C 	0.7386	0.7386	0.194	0.307
Mof_C 	C 	0.7627	0.7627	0.039	-0.534
Mof_C 	C 	0.7389	0.7389	0.0915	0.017
Mof_C 	C 	0.7132	0.7132	0.0497	-0.125
Mof_H 	H 	0.6965	0.6965	0.0842	0.079
Mof_C 	C 	0.7609	0.7609	0.9447	0.231
Mof_H 	H 	0.7773	0.7773	0.9086	1.145
Mof_N 	N 	0.7887	0.7887	0.0845	-1.826
Mof_H 	H 	0.7894	0.7894	0.1456	0.247
Mof_H 	H 	0.8044	0.8044	0.052	0.589
Mof_C 	C 	0.6014	0.6014	0.5819	0.034
Mof_H 	H 	0.6113	0.6113	0.6384	0.032
Mof_C 	C 	0.5728	0.5728	0.5819	-0.116
Mof_H 	H 	0.5629	0.5629	0.6384	0.024
Mof_C 	C 	0.5137	0.5137	0.5829	0.173
Mof_C 	C 	0.4851	0.4851	0.5851	0.078
Mof_O 	O 	0.5288	0.5288	0.6663	0.893
Mof_C 	C 	0.5095	0.5095	0.7398	-0.481
Mof_H 	H 	0.51925	0.51925	0.7965	0.127
Mof_H 	H 	0.4748	0.4748	0.6407	-0.859
Mof_Zr	Zr	0.726	0.274	0.8802	3.221
Mof_Zr	Zr	0.7978	0.2022	0.1192	3.212
Mof_O 	O 	0.8436	0.1564	0.081	-0.611
Mof_O 	O 	0.7858	0.2142	0.7351	-0.622
Mof_O 	O 	0.7372	0.2628	0.7367	-0.694
Mof_O 	O 	0.6795	0.3205	0.9075	-0.647
Mof_H 	H 	0.6767	0.3233	0.9638	0.224
Mof_C 	C 	0.7614	0.2386	0.694	0.344
Mof_C 	C 	0.7373	0.2627	0.539	-0.434
Mof_C 	C 	0.7611	0.2389	0.5915	-0.079
Mof_C 	C 	0.7868	0.2132	0.5497	-0.001
Mof_H 	H 	0.8035	0.1965	0.5842	0.047
Mof_C 	C 	0.7391	0.2609	0.4447	0.138
Mof_H 	H 	0.7227	0.2773	0.4086	1.331
Mof_N 	N 	0.7113	0.2887	0.5845	-1.651
Mof_H 	H 	0.7106	0.2894	0.6456	0.242
Mof_H 	H 	0.6956	0.3044	0.552	0.542
Mof_C 	C 	0.8986	0.1014	0.0819	0.035
Mof_H 	H 	0.8887	0.1113	0.1384	0.028
Mof_C 	C 	0.9272	0.0728	0.0819	-0.113
Mof_H 	H 	0.9371	0.0629	0.1384	0.02
Mof_C 	C 	0.9863	0.0137	0.0829	0.175
Mof_C 	C 	0.0149	0.9851	0.0851	0.078
Mof_O 	O 	0.9712	0.0288	0.1663	0.898
Mof_C 	C 	0.9905	0.0095	0.2398	-0.477
Mof_H 	H 	0.98075	0.01925	0.2965	0.12
Mof_H 	H 	0.0252	0.9748	0.1407	-0.868
Mof_Zr	Zr	0.274	0.726	0.8802	3.221
Mof_Zr	Zr	0.2022	0.7978	0.1192	3.212
Mof_O 	O 	0.1564	0.8436	0.081	-0.611
Mof_O 	O 	0.2142	0.7858	0.7351	-0.622
Mof_O 	O 	0.2628	0.7372	0.7367	-0.694
Mof_O 	O 	0.3205	0.6795	0.9075	-0.647
Mof_H 	H 	0.3233	0.6767	0.9638	0.224
Mof_C 	C 	0.2386	0.7614	0.694	0.344
Mof_C 	C 	0.2627	0.7373	0.539	-0.434
Mof_C 	C 	0.2389	0.7611	0.5915	-0.079
Mof_C 	C 	0.2132	0.7868	0.5497	-0.001
Mof_H 	H 	0.1965	0.8035	0.5842	0.047
Mof_C 	C 	0.2609	0.7391	0.4447	0.138
Mof_H 	H 	0.2773	0.7227	0.4086	1.331
Mof_N 	N 	0.2887	0.7113	0.5845	-1.651
Mof_H 	H 	0.2894	0.7106	0.6456	0.242
Mof_H 	H 	0.3044	0.6956	0.552	0.542
Mof_C 	C 	0.1014	0.8986	0.0819	0.035
Mof_H 	H 	0.1113	0.8887	0.1384	0.028
Mof_C 	C 	0.0728	0.9272	0.0819	-0.113
Mof_H 	H 	0.0629	0.9371	0.1384	0.02
Mof_C 	C 	0.0137	0.9863	0.0829	0.175
Mof_C 	C 	0.9851	0.0149	0.0851	0.078
Mof_O 	O 	0.0288	0.9712	0.1663	0.898
Mof_C 	C 	0.0095	0.9905	0.2398	-0.477
Mof_H 	H 	0.01925	0.98075	0.2965	0.12
Mof_H 	H 	0.9748	0.0252	0.1407	-0.868
Mof_Zr	Zr	0.1879	0.7106	-0	3.219
Mof_O 	O 	0.2984	0.7494	-0	-1.403
Mof_H 	H 	0.3244	0.7378	-0	0.233
Mof_O 	O 	0.1776	0.771	-0	-1.443
Mof_H 	H 	0.15	0.7744	-0	0.285
Mof_Zr	Zr	0.8121	0.2894	-0	3.219
Mof_O 	O 	0.7016	0.2506	-0	-1.403
Mof_H 	H 	0.6756	0.2622	-0	0.233
Mof_O 	O 	0.8224	0.229	-0	-1.443
Mof_H 	H 	0.85	0.2256	-0	0.285
Mof_Zr	Zr	0.7894	0.6879	0.5	3.223
Mof_O 	O 	0.7506	0.7984	0.5	-1.39
Mof_H 	H 	0.7622	0.8244	0.5	0.242
Mof_O 	O 	0.729	0.6776	0.5	-1.43
Mof_H 	H 	0.7256	0.65	0.5	0.292
Mof_Zr	Zr	0.2106	0.3121	0.5	3.223
Mof_O 	O 	0.2494	0.2016	0.5	-1.39
Mof_H 	H 	0.2378	0.1756	0.5	0.242
Mof_O 	O 	0.271	0.3224	0.5	-1.43
Mof_H 	H 	0.2744	0.35	0.5	0.292
Mof_Zr	Zr	0.3121	0.2106	0.5	3.223
Mof_O 	O 	0.2016	0.2494	0.5	-1.39
Mof_H 	H 	0.1756	0.2378	0.5	0.242
Mof_O 	O 	0.3224	0.271	0.5	-1.43
Mof_H 	H 	0.35	0.2744	0.5	0.292
Mof_Zr	Zr	0.6879	0.7894	0.5	3.223
Mof_O 	O 	0.7984	0.7506	0.5	-1.39
Mof_H 	H 	0.8244	0.7622	0.5	0.242
Mof_O 	O 	0.6776	0.729	0.5	-1.43
Mof_H 	H 	0.65	0.7256	0.5	0.292
Mof_Zr	Zr	0.7106	0.1879	-0	3.219
Mof_O 	O 	0.7494	0.2984	-0	-1.403
Mof_H 	H 	0.7378	0.3244	-0	0.233
Mof_O 	O 	0.771	0.1776	-0	-1.443
Mof_H 	H 	0.7744	0.15	-0	0.285
Mof_Zr	Zr	0.2894	0.8121	-0	3.219
Mof_O 	O 	0.2506	0.7016	-0	-1.403
Mof_H 	H 	0.2622	0.6756	-0	0.233
Mof_O 	O 	0.229	0.8224	-0	-1.443
Mof_H 	H 	0.2256	0.85	-0	0.285
Mof_C 	C 	0.1467	0.8533	-0	0.373
Mof_C 	C 	0.1157	0.8843	-0	-0.146
Mof_C 	C 	0.05845	0.94155	-0	0.083
Mof_C 	C 	0.0274	0.9726	-0	-0.247
Mof_C 	C 	0.8533	0.1467	-0	0.373
Mof_C 	C 	0.8843	0.1157	-0	-0.146
Mof_C 	C 	0.94155	0.05845	-0	0.083
Mof_C 	C 	0.9726	0.0274	-0	-0.247
Mof_C 	C 	0.6467	0.6467	0.5	0.407
Mof_C 	C 	0.6157	0.6157	0.5	-0.113
Mof_C 	C 	0.55845	0.55845	0.5	0.117
Mof_C 	C 	0.5274	0.5274	0.5	-0.221
Mof_C 	C 	0.3533	0.3533	0.5	0.407
Mof_C 	C 	0.3843	0.3843	0.5	-0.113
Mof_C 	C 	0.44155	0.44155	0.5	0.117
Mof_C 	C 	0.4726	0.4726	0.5	-0.221
Mof_H 	H 	0.982	0.982	0.764	0.312
Mof_H 	H 	0.0143	0.0143	0.764	-0.036
Mof_H 	H 	0.018	0.018	0.764	0.312
Mof_H 	H 	0.9857	0.9857	0.764	-0.036
Mof_H 	H 	0.518	0.482	0.264	0.313
Mof_H 	H 	0.4857	0.5143	0.264	-0.04
Mof_H 	H 	0.482	0.518	0.264	0.313
Mof_H 	H 	0.5143	0.4857	0.264	-0.04
Mof_H 	H 	0.518	0.482	0.736	0.318
Mof_H 	H 	0.4857	0.5143	0.736	-0.037
Mof_H 	H 	0.482	0.518	0.736	0.318
Mof_H 	H 	0.5143	0.4857	0.736	-0.037
Mof_H 	H 	0.982	0.982	0.236	0.315
Mof_H 	H 	0.0143	0.0143	0.236	-0.039
Mof_H 	H 	0.018	0.018	0.236	0.315
Mof_H 	H 	0.9857	0.9857	0.236	-0.039
_end
