data_functionalizedCrystal
_audit_creation_method	'EQeq! by Chris Wilmer'
_symmetry_space_group_name_H-M	'P1'
_symmetry_Int_Tables_number	1
_symmetry_cell_setting	triclinic
loop_
_symmetry_equiv_pos_as_xyz
  x,y,z
_cell_length_a	18.5943
_cell_length_b	18.5943
_cell_length_c	38.7113
_cell_angle_alpha	90
_cell_angle_beta	90
_cell_angle_gamma	120
loop_
_atom_site_label
_atom_site_type_symbol
_atom_site_fract_x
_atom_site_fract_y
_atom_site_fract_z
_atom_site_charge
Mof_N 	N 	0.498	0.6153	0.5543	-0.132
Mof_O 	O 	0.74436	0.63663	0.62256	-0.414
Mof_O 	O 	0.70504	0.55682	0.66957	-0.412
Mof_C 	C 	0.6943	0.5749	0.63958	0.382
Mof_C 	C 	0.6133	0.5156	0.62243	-0.128
Mof_C 	C 	0.5985	0.5293	0.58831	0.067
Mof_H 	H 	0.6372	0.5771	0.5769	0.029
Mof_C 	C 	0.4999	0.443	0.5118	-0.252
Mof_H 	H 	0.5043	0.3965	0.5195	-0.031
Mof_C 	C 	0.4891	0.458	0.4776	-0.25
Mof_H 	H 	0.4907	0.4223	0.4607	-0.039
Mof_C 	C 	0.4898	0.5824	0.4936	0.28
Mof_C 	C 	0.4809	0.6504	0.4858	-0.143
Mof_H 	H 	0.4787	0.664	0.4629	0.087
Mof_C 	C 	0.474	0.6966	0.5123	-0.082
Mof_H 	H 	0.4613	0.736	0.5072	0.058
Mof_C 	C 	0.488	0.684	0.5462	0.048
Mof_H 	H 	0.4917	0.7218	0.564	0.021
Mof_C 	C 	0.4984	0.5663	0.5279	0.266
Mof_N 	N 	0.16467	0.94863	0.88763	-0.132
Mof_O 	O 	0.41103	0.96996	0.95589	-0.413
Mof_O 	O 	0.37171	0.89015	0.0029	-0.412
Mof_C 	C 	0.36097	0.90823	0.97291	0.383
Mof_C 	C 	0.27997	0.84893	0.95576	-0.127
Mof_C 	C 	0.26517	0.86263	0.92164	0.068
Mof_H 	H 	0.30387	0.91043	0.91023	0.03
Mof_C 	C 	0.16657	0.77633	0.84513	-0.251
Mof_H 	H 	0.17097	0.72983	0.85283	-0.033
Mof_C 	C 	0.15577	0.79133	0.81093	-0.25
Mof_H 	H 	0.15737	0.75563	0.79403	-0.039
Mof_C 	C 	0.15647	0.91573	0.82693	0.281
Mof_C 	C 	0.14757	0.98373	0.81913	-0.138
Mof_H 	H 	0.14537	0.99733	0.79623	0.085
Mof_C 	C 	0.14067	0.02993	0.84563	-0.09
Mof_H 	H 	0.12797	0.06933	0.84053	0.061
Mof_C 	C 	0.15467	0.01733	0.87953	0.051
Mof_H 	H 	0.15837	0.05513	0.89733	0.02
Mof_C 	C 	0.16507	0.89963	0.86123	0.266
Mof_N 	N 	0.83133	0.28197	0.22097	-0.132
Mof_O 	O 	0.07769	0.3033	0.28923	-0.413
Mof_O 	O 	0.03837	0.22349	0.33624	-0.411
Mof_C 	C 	0.02763	0.24157	0.30625	0.382
Mof_C 	C 	0.94663	0.18227	0.2891	-0.126
Mof_C 	C 	0.93183	0.19597	0.25498	0.068
Mof_H 	H 	0.97053	0.24377	0.24357	0.03
Mof_C 	C 	0.83323	0.10967	0.17847	-0.252
Mof_H 	H 	0.83763	0.06317	0.18617	-0.033
Mof_C 	C 	0.82243	0.12467	0.14427	-0.251
Mof_H 	H 	0.82403	0.08897	0.12737	-0.039
Mof_C 	C 	0.82313	0.24907	0.16027	0.281
Mof_C 	C 	0.81423	0.31707	0.15247	-0.139
Mof_H 	H 	0.81203	0.33067	0.12957	0.086
Mof_C 	C 	0.80733	0.36327	0.17897	-0.089
Mof_H 	H 	0.79463	0.40267	0.17387	0.061
Mof_C 	C 	0.82133	0.35067	0.21287	0.051
Mof_H 	H 	0.82503	0.38847	0.23067	0.02
Mof_C 	C 	0.83173	0.23297	0.19457	0.266
Mof_N 	N 	0.3847	0.8827	0.5543	-0.131
Mof_O 	O 	0.36337	0.10773	0.62256	-0.413
Mof_O 	O 	0.44318	0.14822	0.66957	-0.411
Mof_C 	C 	0.4251	0.1194	0.63958	0.383
Mof_C 	C 	0.4844	0.0977	0.62243	-0.127
Mof_C 	C 	0.4707	0.0692	0.58831	0.068
Mof_H 	H 	0.4229	0.0601	0.5769	0.03
Mof_C 	C 	0.557	0.0569	0.5118	-0.251
Mof_H 	H 	0.6035	0.1078	0.5195	-0.031
Mof_C 	C 	0.542	0.0311	0.4776	-0.25
Mof_H 	H 	0.5777	0.0684	0.4607	-0.039
Mof_C 	C 	0.4176	0.9074	0.4936	0.28
Mof_C 	C 	0.3496	0.8305	0.4858	-0.143
Mof_H 	H 	0.336	0.8147	0.4629	0.087
Mof_C 	C 	0.3034	0.7774	0.5123	-0.082
Mof_H 	H 	0.264	0.7253	0.5072	0.058
Mof_C 	C 	0.316	0.804	0.5462	0.048
Mof_H 	H 	0.2782	0.7699	0.564	0.021
Mof_C 	C 	0.4337	0.9321	0.5279	0.266
Mof_N 	N 	0.05137	0.21603	0.88763	-0.129
Mof_O 	O 	0.03004	0.44106	0.95589	-0.413
Mof_O 	O 	0.10985	0.48155	0.0029	-0.411
Mof_C 	C 	0.09177	0.45273	0.97291	0.383
Mof_C 	C 	0.15107	0.43103	0.95576	-0.127
Mof_C 	C 	0.13737	0.40253	0.92164	0.068
Mof_H 	H 	0.08957	0.39343	0.91023	0.03
Mof_C 	C 	0.22367	0.39023	0.84513	-0.258
Mof_H 	H 	0.27017	0.44113	0.85283	-0.024
Mof_C 	C 	0.20867	0.36443	0.81093	-0.239
Mof_H 	H 	0.24437	0.40173	0.79403	-0.043
Mof_C 	C 	0.08427	0.24073	0.82693	0.278
Mof_C 	C 	0.01627	0.16383	0.81913	-0.151
Mof_H 	H 	0.00267	0.14803	0.79623	0.089
Mof_C 	C 	0.97007	0.11073	0.84563	-0.072
Mof_H 	H 	0.93067	0.05863	0.84053	0.053
Mof_C 	C 	0.98267	0.13733	0.87953	0.042
Mof_H 	H 	0.94487	0.10323	0.89733	0.023
Mof_C 	C 	0.10037	0.26543	0.86123	0.267
Mof_N 	N 	0.71803	0.54937	0.22097	-0.129
Mof_O 	O 	0.6967	0.7744	0.28923	-0.413
Mof_O 	O 	0.77651	0.81489	0.33624	-0.411
Mof_C 	C 	0.75843	0.78607	0.30625	0.383
Mof_C 	C 	0.81773	0.76437	0.2891	-0.126
Mof_C 	C 	0.80403	0.73587	0.25498	0.068
Mof_H 	H 	0.75623	0.72677	0.24357	0.03
Mof_C 	C 	0.89033	0.72357	0.17847	-0.259
Mof_H 	H 	0.93683	0.77447	0.18617	-0.025
Mof_C 	C 	0.87533	0.69777	0.14427	-0.238
Mof_H 	H 	0.91103	0.73507	0.12737	-0.044
Mof_C 	C 	0.75093	0.57407	0.16027	0.277
Mof_C 	C 	0.68293	0.49717	0.15247	-0.153
Mof_H 	H 	0.66933	0.48137	0.12957	0.09
Mof_C 	C 	0.63673	0.44407	0.17897	-0.067
Mof_H 	H 	0.59733	0.39197	0.17387	0.052
Mof_C 	C 	0.64933	0.47067	0.21287	0.041
Mof_H 	H 	0.61153	0.43657	0.23067	0.023
Mof_C 	C 	0.76703	0.59877	0.19457	0.266
Mof_N 	N 	0.1173	0.502	0.5543	-0.131
Mof_O 	O 	0.89227	0.25564	0.62256	-0.413
Mof_O 	O 	0.85178	0.29496	0.66957	-0.411
Mof_C 	C 	0.8806	0.3057	0.63958	0.383
Mof_C 	C 	0.9023	0.3867	0.62243	-0.127
Mof_C 	C 	0.9308	0.4015	0.58831	0.068
Mof_H 	H 	0.9399	0.3628	0.5769	0.03
Mof_C 	C 	0.9431	0.5001	0.5118	-0.252
Mof_H 	H 	0.8922	0.4957	0.5195	-0.031
Mof_C 	C 	0.9689	0.5109	0.4776	-0.25
Mof_H 	H 	0.9316	0.5093	0.4607	-0.039
Mof_C 	C 	0.0926	0.5102	0.4936	0.28
Mof_C 	C 	0.1695	0.5191	0.4858	-0.143
Mof_H 	H 	0.1853	0.5213	0.4629	0.087
Mof_C 	C 	0.2226	0.526	0.5123	-0.082
Mof_H 	H 	0.2747	0.5387	0.5072	0.058
Mof_C 	C 	0.196	0.512	0.5462	0.048
Mof_H 	H 	0.2301	0.5083	0.564	0.021
Mof_C 	C 	0.0679	0.5016	0.5279	0.266
Mof_N 	N 	0.78397	0.83533	0.88763	-0.133
Mof_O 	O 	0.55894	0.58897	0.95589	-0.413
Mof_O 	O 	0.51845	0.62829	0.0029	-0.411
Mof_C 	C 	0.54727	0.63903	0.97291	0.383
Mof_C 	C 	0.56897	0.72003	0.95576	-0.127
Mof_C 	C 	0.59747	0.73483	0.92164	0.068
Mof_H 	H 	0.60657	0.69613	0.91023	0.03
Mof_C 	C 	0.60977	0.83343	0.84513	-0.244
Mof_H 	H 	0.55887	0.82903	0.85283	-0.036
Mof_C 	C 	0.63557	0.84423	0.81093	-0.26
Mof_H 	H 	0.59827	0.84263	0.79403	-0.034
Mof_C 	C 	0.75927	0.84353	0.82693	0.282
Mof_C 	C 	0.83617	0.85243	0.81913	-0.135
Mof_H 	H 	0.85197	0.85463	0.79623	0.085
Mof_C 	C 	0.88927	0.85933	0.84563	-0.092
Mof_H 	H 	0.94137	0.87203	0.84053	0.062
Mof_C 	C 	0.86267	0.84533	0.87953	0.053
Mof_H 	H 	0.89677	0.84163	0.89733	0.02
Mof_C 	C 	0.73457	0.83493	0.86123	0.265
Mof_N 	N 	0.45063	0.16867	0.22097	-0.133
Mof_O 	O 	0.2256	0.92231	0.28923	-0.413
Mof_O 	O 	0.18511	0.96163	0.33624	-0.411
Mof_C 	C 	0.21393	0.97237	0.30625	0.382
Mof_C 	C 	0.23563	0.05337	0.2891	-0.126
Mof_C 	C 	0.26413	0.06817	0.25498	0.067
Mof_H 	H 	0.27323	0.02947	0.24357	0.03
Mof_C 	C 	0.27643	0.16677	0.17847	-0.244
Mof_H 	H 	0.22553	0.16237	0.18617	-0.037
Mof_C 	C 	0.30223	0.17757	0.14427	-0.261
Mof_H 	H 	0.26493	0.17597	0.12737	-0.034
Mof_C 	C 	0.42593	0.17687	0.16027	0.28
Mof_C 	C 	0.50283	0.18577	0.15247	-0.135
Mof_H 	H 	0.51863	0.18797	0.12957	0.085
Mof_C 	C 	0.55593	0.19267	0.17897	-0.091
Mof_H 	H 	0.60803	0.20537	0.17387	0.062
Mof_C 	C 	0.52933	0.17867	0.21287	0.052
Mof_H 	H 	0.56343	0.17497	0.23067	0.02
Mof_C 	C 	0.40123	0.16827	0.19457	0.264
Mof_N 	N 	0.6153	0.498	0.4457	-0.131
Mof_O 	O 	0.63663	0.74436	0.37744	-0.413
Mof_O 	O 	0.55682	0.70504	0.33043	-0.411
Mof_C 	C 	0.5749	0.6943	0.36042	0.383
Mof_C 	C 	0.5156	0.6133	0.37757	-0.127
Mof_C 	C 	0.5293	0.5985	0.41169	0.068
Mof_H 	H 	0.5771	0.6372	0.4231	0.03
Mof_C 	C 	0.443	0.4999	0.4882	-0.251
Mof_H 	H 	0.3965	0.5043	0.4805	-0.031
Mof_C 	C 	0.458	0.4891	0.5224	-0.25
Mof_H 	H 	0.4223	0.4907	0.5393	-0.039
Mof_C 	C 	0.5824	0.4898	0.5064	0.28
Mof_C 	C 	0.6504	0.4809	0.5142	-0.143
Mof_H 	H 	0.664	0.4787	0.5371	0.087
Mof_C 	C 	0.6966	0.474	0.4877	-0.082
Mof_H 	H 	0.736	0.4613	0.4928	0.058
Mof_C 	C 	0.684	0.488	0.4538	0.048
Mof_H 	H 	0.7218	0.4917	0.436	0.021
Mof_C 	C 	0.5663	0.4984	0.4721	0.266
Mof_N 	N 	0.28197	0.83133	0.77903	-0.132
Mof_O 	O 	0.3033	0.07769	0.71077	-0.413
Mof_O 	O 	0.22349	0.03837	0.66376	-0.411
Mof_C 	C 	0.24157	0.02763	0.69375	0.382
Mof_C 	C 	0.18227	0.94663	0.7109	-0.126
Mof_C 	C 	0.19597	0.93183	0.74502	0.068
Mof_H 	H 	0.24377	0.97053	0.75643	0.03
Mof_C 	C 	0.10967	0.83323	0.82153	-0.252
Mof_H 	H 	0.06317	0.83763	0.81383	-0.033
Mof_C 	C 	0.12467	0.82243	0.85573	-0.251
Mof_H 	H 	0.08897	0.82403	0.87263	-0.039
Mof_C 	C 	0.24907	0.82313	0.83973	0.281
Mof_C 	C 	0.31707	0.81423	0.84753	-0.139
Mof_H 	H 	0.33067	0.81203	0.87043	0.086
Mof_C 	C 	0.36327	0.80733	0.82103	-0.089
Mof_H 	H 	0.40267	0.79463	0.82613	0.061
Mof_C 	C 	0.35067	0.82133	0.78713	0.051
Mof_H 	H 	0.38847	0.82503	0.76933	0.02
Mof_C 	C 	0.23297	0.83173	0.80543	0.266
Mof_N 	N 	0.94863	0.16467	0.11237	-0.132
Mof_O 	O 	0.96996	0.41103	0.04411	-0.413
Mof_O 	O 	0.89015	0.37171	0.9971	-0.412
Mof_C 	C 	0.90823	0.36097	0.02709	0.383
Mof_C 	C 	0.84893	0.27997	0.04424	-0.127
Mof_C 	C 	0.86263	0.26517	0.07836	0.068
Mof_H 	H 	0.91043	0.30387	0.08977	0.03
Mof_C 	C 	0.77633	0.16657	0.15487	-0.251
Mof_H 	H 	0.72983	0.17097	0.14717	-0.033
Mof_C 	C 	0.79133	0.15577	0.18907	-0.25
Mof_H 	H 	0.75563	0.15737	0.20597	-0.039
Mof_C 	C 	0.91573	0.15647	0.17307	0.281
Mof_C 	C 	0.98373	0.14757	0.18087	-0.138
Mof_H 	H 	0.99733	0.14537	0.20377	0.085
Mof_C 	C 	0.02993	0.14067	0.15437	-0.09
Mof_H 	H 	0.06933	0.12797	0.15947	0.061
Mof_C 	C 	0.01733	0.15467	0.12047	0.051
Mof_H 	H 	0.05513	0.15837	0.10267	0.02
Mof_C 	C 	0.89963	0.16507	0.13877	0.266
Mof_N 	N 	0.8827	0.3847	0.4457	-0.131
Mof_O 	O 	0.10773	0.36337	0.37744	-0.413
Mof_O 	O 	0.14822	0.44318	0.33043	-0.411
Mof_C 	C 	0.1194	0.4251	0.36042	0.383
Mof_C 	C 	0.0977	0.4844	0.37757	-0.127
Mof_C 	C 	0.0692	0.4707	0.41169	0.068
Mof_H 	H 	0.0601	0.4229	0.4231	0.03
Mof_C 	C 	0.0569	0.557	0.4882	-0.251
Mof_H 	H 	0.1078	0.6035	0.4805	-0.031
Mof_C 	C 	0.0311	0.542	0.5224	-0.25
Mof_H 	H 	0.0684	0.5777	0.5393	-0.039
Mof_C 	C 	0.9074	0.4176	0.5064	0.28
Mof_C 	C 	0.8305	0.3496	0.5142	-0.143
Mof_H 	H 	0.8147	0.336	0.5371	0.087
Mof_C 	C 	0.7774	0.3034	0.4877	-0.082
Mof_H 	H 	0.7253	0.264	0.4928	0.058
Mof_C 	C 	0.804	0.316	0.4538	0.048
Mof_H 	H 	0.7699	0.2782	0.436	0.021
Mof_C 	C 	0.9321	0.4337	0.4721	0.266
Mof_N 	N 	0.54937	0.71803	0.77903	-0.129
Mof_O 	O 	0.7744	0.6967	0.71077	-0.413
Mof_O 	O 	0.81489	0.77651	0.66376	-0.411
Mof_C 	C 	0.78607	0.75843	0.69375	0.383
Mof_C 	C 	0.76437	0.81773	0.7109	-0.126
Mof_C 	C 	0.73587	0.80403	0.74502	0.068
Mof_H 	H 	0.72677	0.75623	0.75643	0.03
Mof_C 	C 	0.72357	0.89033	0.82153	-0.259
Mof_H 	H 	0.77447	0.93683	0.81383	-0.025
Mof_C 	C 	0.69777	0.87533	0.85573	-0.238
Mof_H 	H 	0.73507	0.91103	0.87263	-0.044
Mof_C 	C 	0.57407	0.75093	0.83973	0.277
Mof_C 	C 	0.49717	0.68293	0.84753	-0.153
Mof_H 	H 	0.48137	0.66933	0.87043	0.09
Mof_C 	C 	0.44407	0.63673	0.82103	-0.067
Mof_H 	H 	0.39197	0.59733	0.82613	0.052
Mof_C 	C 	0.47067	0.64933	0.78713	0.041
Mof_H 	H 	0.43657	0.61153	0.76933	0.023
Mof_C 	C 	0.59877	0.76703	0.80543	0.266
Mof_N 	N 	0.21603	0.05137	0.11237	-0.129
Mof_O 	O 	0.44106	0.03004	0.04411	-0.413
Mof_O 	O 	0.48155	0.10985	0.9971	-0.411
Mof_C 	C 	0.45273	0.09177	0.02709	0.383
Mof_C 	C 	0.43103	0.15107	0.04424	-0.127
Mof_C 	C 	0.40253	0.13737	0.07836	0.068
Mof_H 	H 	0.39343	0.08957	0.08977	0.03
Mof_C 	C 	0.39023	0.22367	0.15487	-0.258
Mof_H 	H 	0.44113	0.27017	0.14717	-0.024
Mof_C 	C 	0.36443	0.20867	0.18907	-0.239
Mof_H 	H 	0.40173	0.24437	0.20597	-0.043
Mof_C 	C 	0.24073	0.08427	0.17307	0.278
Mof_C 	C 	0.16383	0.01627	0.18087	-0.151
Mof_H 	H 	0.14803	0.00267	0.20377	0.089
Mof_C 	C 	0.11073	0.97007	0.15437	-0.072
Mof_H 	H 	0.05863	0.93067	0.15947	0.053
Mof_C 	C 	0.13733	0.98267	0.12047	0.042
Mof_H 	H 	0.10323	0.94487	0.10267	0.023
Mof_C 	C 	0.26543	0.10037	0.13877	0.267
Mof_N 	N 	0.502	0.1173	0.4457	-0.131
Mof_O 	O 	0.25564	0.89227	0.37744	-0.413
Mof_O 	O 	0.29496	0.85178	0.33043	-0.411
Mof_C 	C 	0.3057	0.8806	0.36042	0.383
Mof_C 	C 	0.3867	0.9023	0.37757	-0.127
Mof_C 	C 	0.4015	0.9308	0.41169	0.068
Mof_H 	H 	0.3628	0.9399	0.4231	0.03
Mof_C 	C 	0.5001	0.9431	0.4882	-0.252
Mof_H 	H 	0.4957	0.8922	0.4805	-0.031
Mof_C 	C 	0.5109	0.9689	0.5224	-0.25
Mof_H 	H 	0.5093	0.9316	0.5393	-0.039
Mof_C 	C 	0.5102	0.0926	0.5064	0.28
Mof_C 	C 	0.5191	0.1695	0.5142	-0.143
Mof_H 	H 	0.5213	0.1853	0.5371	0.087
Mof_C 	C 	0.526	0.2226	0.4877	-0.082
Mof_H 	H 	0.5387	0.2747	0.4928	0.058
Mof_C 	C 	0.512	0.196	0.4538	0.048
Mof_H 	H 	0.5083	0.2301	0.436	0.021
Mof_C 	C 	0.5016	0.0679	0.4721	0.266
Mof_N 	N 	0.16867	0.45063	0.77903	-0.133
Mof_O 	O 	0.92231	0.2256	0.71077	-0.413
Mof_O 	O 	0.96163	0.18511	0.66376	-0.411
Mof_C 	C 	0.97237	0.21393	0.69375	0.382
Mof_C 	C 	0.05337	0.23563	0.7109	-0.126
Mof_C 	C 	0.06817	0.26413	0.74502	0.067
Mof_H 	H 	0.02947	0.27323	0.75643	0.03
Mof_C 	C 	0.16677	0.27643	0.82153	-0.244
Mof_H 	H 	0.16237	0.22553	0.81383	-0.037
Mof_C 	C 	0.17757	0.30223	0.85573	-0.261
Mof_H 	H 	0.17597	0.26493	0.87263	-0.034
Mof_C 	C 	0.17687	0.42593	0.83973	0.28
Mof_C 	C 	0.18577	0.50283	0.84753	-0.135
Mof_H 	H 	0.18797	0.51863	0.87043	0.085
Mof_C 	C 	0.19267	0.55593	0.82103	-0.091
Mof_H 	H 	0.20537	0.60803	0.82613	0.062
Mof_C 	C 	0.17867	0.52933	0.78713	0.052
Mof_H 	H 	0.17497	0.56343	0.76933	0.02
Mof_C 	C 	0.16827	0.40123	0.80543	0.264
Mof_N 	N 	0.83533	0.78397	0.11237	-0.133
Mof_O 	O 	0.58897	0.55894	0.04411	-0.413
Mof_O 	O 	0.62829	0.51845	0.9971	-0.411
Mof_C 	C 	0.63903	0.54727	0.02709	0.383
Mof_C 	C 	0.72003	0.56897	0.04424	-0.127
Mof_C 	C 	0.73483	0.59747	0.07836	0.068
Mof_H 	H 	0.69613	0.60657	0.08977	0.03
Mof_C 	C 	0.83343	0.60977	0.15487	-0.244
Mof_H 	H 	0.82903	0.55887	0.14717	-0.036
Mof_C 	C 	0.84423	0.63557	0.18907	-0.26
Mof_H 	H 	0.84263	0.59827	0.20597	-0.034
Mof_C 	C 	0.84353	0.75927	0.17307	0.282
Mof_C 	C 	0.85243	0.83617	0.18087	-0.135
Mof_H 	H 	0.85463	0.85197	0.20377	0.085
Mof_C 	C 	0.85933	0.88927	0.15437	-0.092
Mof_H 	H 	0.87203	0.94137	0.15947	0.062
Mof_C 	C 	0.84533	0.86267	0.12047	0.053
Mof_H 	H 	0.84163	0.89677	0.10267	0.02
Mof_C 	C 	0.83493	0.73457	0.13877	0.265
Mof_N 	N 	0.502	0.3847	0.4457	-0.131
Mof_O 	O 	0.25564	0.36337	0.37744	-0.413
Mof_O 	O 	0.29496	0.44318	0.33043	-0.411
Mof_C 	C 	0.3057	0.4251	0.36042	0.383
Mof_C 	C 	0.3867	0.4844	0.37757	-0.127
Mof_C 	C 	0.4015	0.4707	0.41169	0.068
Mof_H 	H 	0.3628	0.4229	0.4231	0.03
Mof_C 	C 	0.5001	0.557	0.4882	-0.251
Mof_H 	H 	0.4957	0.6035	0.4805	-0.031
Mof_C 	C 	0.5109	0.542	0.5224	-0.25
Mof_H 	H 	0.5093	0.5777	0.5393	-0.039
Mof_C 	C 	0.5102	0.4176	0.5064	0.28
Mof_C 	C 	0.5191	0.3496	0.5142	-0.143
Mof_H 	H 	0.5213	0.336	0.5371	0.087
Mof_C 	C 	0.526	0.3034	0.4877	-0.082
Mof_H 	H 	0.5387	0.264	0.4928	0.058
Mof_C 	C 	0.512	0.316	0.4538	0.048
Mof_H 	H 	0.5083	0.2782	0.436	0.021
Mof_C 	C 	0.5016	0.4337	0.4721	0.266
Mof_N 	N 	0.16867	0.71803	0.77903	-0.132
Mof_O 	O 	0.92231	0.6967	0.71077	-0.413
Mof_O 	O 	0.96163	0.77651	0.66376	-0.411
Mof_C 	C 	0.97237	0.75843	0.69375	0.382
Mof_C 	C 	0.05337	0.81773	0.7109	-0.126
Mof_C 	C 	0.06817	0.80403	0.74502	0.068
Mof_H 	H 	0.02947	0.75623	0.75643	0.03
Mof_C 	C 	0.16677	0.89033	0.82153	-0.252
Mof_H 	H 	0.16237	0.93683	0.81383	-0.033
Mof_C 	C 	0.17757	0.87533	0.85573	-0.251
Mof_H 	H 	0.17597	0.91103	0.87263	-0.039
Mof_C 	C 	0.17687	0.75093	0.83973	0.281
Mof_C 	C 	0.18577	0.68293	0.84753	-0.139
Mof_H 	H 	0.18797	0.66933	0.87043	0.086
Mof_C 	C 	0.19267	0.63673	0.82103	-0.089
Mof_H 	H 	0.20537	0.59733	0.82613	0.061
Mof_C 	C 	0.17867	0.64933	0.78713	0.051
Mof_H 	H 	0.17497	0.61153	0.76933	0.02
Mof_C 	C 	0.16827	0.76703	0.80543	0.266
Mof_N 	N 	0.83533	0.05137	0.11237	-0.132
Mof_O 	O 	0.58897	0.03004	0.04411	-0.413
Mof_O 	O 	0.62829	0.10985	0.9971	-0.412
Mof_C 	C 	0.63903	0.09177	0.02709	0.383
Mof_C 	C 	0.72003	0.15107	0.04424	-0.127
Mof_C 	C 	0.73483	0.13737	0.07836	0.068
Mof_H 	H 	0.69613	0.08957	0.08977	0.03
Mof_C 	C 	0.83343	0.22367	0.15487	-0.251
Mof_H 	H 	0.82903	0.27017	0.14717	-0.033
Mof_C 	C 	0.84423	0.20867	0.18907	-0.25
Mof_H 	H 	0.84263	0.24437	0.20597	-0.039
Mof_C 	C 	0.84353	0.08427	0.17307	0.281
Mof_C 	C 	0.85243	0.01627	0.18087	-0.138
Mof_H 	H 	0.85463	0.00267	0.20377	0.085
Mof_C 	C 	0.85933	0.97007	0.15437	-0.09
Mof_H 	H 	0.87203	0.93067	0.15947	0.061
Mof_C 	C 	0.84533	0.98267	0.12047	0.051
Mof_H 	H 	0.84163	0.94487	0.10267	0.02
Mof_C 	C 	0.83493	0.10037	0.13877	0.266
Mof_N 	N 	0.6153	0.1173	0.4457	-0.131
Mof_O 	O 	0.63663	0.89227	0.37744	-0.413
Mof_O 	O 	0.55682	0.85178	0.33043	-0.411
Mof_C 	C 	0.5749	0.8806	0.36042	0.383
Mof_C 	C 	0.5156	0.9023	0.37757	-0.127
Mof_C 	C 	0.5293	0.9308	0.41169	0.068
Mof_H 	H 	0.5771	0.9399	0.4231	0.03
Mof_C 	C 	0.443	0.9431	0.4882	-0.251
Mof_H 	H 	0.3965	0.8922	0.4805	-0.031
Mof_C 	C 	0.458	0.9689	0.5224	-0.25
Mof_H 	H 	0.4223	0.9316	0.5393	-0.039
Mof_C 	C 	0.5824	0.0926	0.5064	0.28
Mof_C 	C 	0.6504	0.1695	0.5142	-0.143
Mof_H 	H 	0.664	0.1853	0.5371	0.087
Mof_C 	C 	0.6966	0.2226	0.4877	-0.082
Mof_H 	H 	0.736	0.2747	0.4928	0.058
Mof_C 	C 	0.684	0.196	0.4538	0.048
Mof_H 	H 	0.7218	0.2301	0.436	0.021
Mof_C 	C 	0.5663	0.0679	0.4721	0.266
Mof_N 	N 	0.28197	0.45063	0.77903	-0.129
Mof_O 	O 	0.3033	0.2256	0.71077	-0.413
Mof_O 	O 	0.22349	0.18511	0.66376	-0.411
Mof_C 	C 	0.24157	0.21393	0.69375	0.383
Mof_C 	C 	0.18227	0.23563	0.7109	-0.126
Mof_C 	C 	0.19597	0.26413	0.74502	0.068
Mof_H 	H 	0.24377	0.27323	0.75643	0.03
Mof_C 	C 	0.10967	0.27643	0.82153	-0.259
Mof_H 	H 	0.06317	0.22553	0.81383	-0.025
Mof_C 	C 	0.12467	0.30223	0.85573	-0.238
Mof_H 	H 	0.08897	0.26493	0.87263	-0.044
Mof_C 	C 	0.24907	0.42593	0.83973	0.277
Mof_C 	C 	0.31707	0.50283	0.84753	-0.153
Mof_H 	H 	0.33067	0.51863	0.87043	0.09
Mof_C 	C 	0.36327	0.55593	0.82103	-0.067
Mof_H 	H 	0.40267	0.60803	0.82613	0.052
Mof_C 	C 	0.35067	0.52933	0.78713	0.041
Mof_H 	H 	0.38847	0.56343	0.76933	0.023
Mof_C 	C 	0.23297	0.40123	0.80543	0.266
Mof_N 	N 	0.94863	0.78397	0.11237	-0.129
Mof_O 	O 	0.96996	0.55894	0.04411	-0.413
Mof_O 	O 	0.89015	0.51845	0.9971	-0.411
Mof_C 	C 	0.90823	0.54727	0.02709	0.383
Mof_C 	C 	0.84893	0.56897	0.04424	-0.127
Mof_C 	C 	0.86263	0.59747	0.07836	0.068
Mof_H 	H 	0.91043	0.60657	0.08977	0.03
Mof_C 	C 	0.77633	0.60977	0.15487	-0.258
Mof_H 	H 	0.72983	0.55887	0.14717	-0.024
Mof_C 	C 	0.79133	0.63557	0.18907	-0.239
Mof_H 	H 	0.75563	0.59827	0.20597	-0.043
Mof_C 	C 	0.91573	0.75927	0.17307	0.278
Mof_C 	C 	0.98373	0.83617	0.18087	-0.151
Mof_H 	H 	0.99733	0.85197	0.20377	0.089
Mof_C 	C 	0.02993	0.88927	0.15437	-0.072
Mof_H 	H 	0.06933	0.94137	0.15947	0.053
Mof_C 	C 	0.01733	0.86267	0.12047	0.042
Mof_H 	H 	0.05513	0.89677	0.10267	0.023
Mof_C 	C 	0.89963	0.73457	0.13877	0.267
Mof_N 	N 	0.8827	0.498	0.4457	-0.131
Mof_O 	O 	0.10773	0.74436	0.37744	-0.413
Mof_O 	O 	0.14822	0.70504	0.33043	-0.411
Mof_C 	C 	0.1194	0.6943	0.36042	0.383
Mof_C 	C 	0.0977	0.6133	0.37757	-0.127
Mof_C 	C 	0.0692	0.5985	0.41169	0.068
Mof_H 	H 	0.0601	0.6372	0.4231	0.03
Mof_C 	C 	0.0569	0.4999	0.4882	-0.252
Mof_H 	H 	0.1078	0.5043	0.4805	-0.031
Mof_C 	C 	0.0311	0.4891	0.5224	-0.25
Mof_H 	H 	0.0684	0.4907	0.5393	-0.039
Mof_C 	C 	0.9074	0.4898	0.5064	0.28
Mof_C 	C 	0.8305	0.4809	0.5142	-0.143
Mof_H 	H 	0.8147	0.4787	0.5371	0.087
Mof_C 	C 	0.7774	0.474	0.4877	-0.082
Mof_H 	H 	0.7253	0.4613	0.4928	0.058
Mof_C 	C 	0.804	0.488	0.4538	0.048
Mof_H 	H 	0.7699	0.4917	0.436	0.021
Mof_C 	C 	0.9321	0.4984	0.4721	0.266
Mof_N 	N 	0.54937	0.83133	0.77903	-0.133
Mof_O 	O 	0.7744	0.07769	0.71077	-0.413
Mof_O 	O 	0.81489	0.03837	0.66376	-0.411
Mof_C 	C 	0.78607	0.02763	0.69375	0.382
Mof_C 	C 	0.76437	0.94663	0.7109	-0.126
Mof_C 	C 	0.73587	0.93183	0.74502	0.067
Mof_H 	H 	0.72677	0.97053	0.75643	0.03
Mof_C 	C 	0.72357	0.83323	0.82153	-0.244
Mof_H 	H 	0.77447	0.83763	0.81383	-0.037
Mof_C 	C 	0.69777	0.82243	0.85573	-0.261
Mof_H 	H 	0.73507	0.82403	0.87263	-0.034
Mof_C 	C 	0.57407	0.82313	0.83973	0.28
Mof_C 	C 	0.49717	0.81423	0.84753	-0.135
Mof_H 	H 	0.48137	0.81203	0.87043	0.085
Mof_C 	C 	0.44407	0.80733	0.82103	-0.091
Mof_H 	H 	0.39197	0.79463	0.82613	0.062
Mof_C 	C 	0.47067	0.82133	0.78713	0.052
Mof_H 	H 	0.43657	0.82503	0.76933	0.02
Mof_C 	C 	0.59877	0.83173	0.80543	0.264
Mof_N 	N 	0.21603	0.16467	0.11237	-0.133
Mof_O 	O 	0.44106	0.41103	0.04411	-0.413
Mof_O 	O 	0.48155	0.37171	0.9971	-0.411
Mof_C 	C 	0.45273	0.36097	0.02709	0.383
Mof_C 	C 	0.43103	0.27997	0.04424	-0.127
Mof_C 	C 	0.40253	0.26517	0.07836	0.068
Mof_H 	H 	0.39343	0.30387	0.08977	0.03
Mof_C 	C 	0.39023	0.16657	0.15487	-0.244
Mof_H 	H 	0.44113	0.17097	0.14717	-0.036
Mof_C 	C 	0.36443	0.15577	0.18907	-0.26
Mof_H 	H 	0.40173	0.15737	0.20597	-0.034
Mof_C 	C 	0.24073	0.15647	0.17307	0.282
Mof_C 	C 	0.16383	0.14757	0.18087	-0.135
Mof_H 	H 	0.14803	0.14537	0.20377	0.085
Mof_C 	C 	0.11073	0.14067	0.15437	-0.092
Mof_H 	H 	0.05863	0.12797	0.15947	0.062
Mof_C 	C 	0.13733	0.15467	0.12047	0.053
Mof_H 	H 	0.10323	0.15837	0.10267	0.02
Mof_C 	C 	0.26543	0.16507	0.13877	0.265
Mof_N 	N 	0.3847	0.502	0.5543	-0.131
Mof_O 	O 	0.36337	0.25564	0.62256	-0.413
Mof_O 	O 	0.44318	0.29496	0.66957	-0.411
Mof_C 	C 	0.4251	0.3057	0.63958	0.383
Mof_C 	C 	0.4844	0.3867	0.62243	-0.127
Mof_C 	C 	0.4707	0.4015	0.58831	0.068
Mof_H 	H 	0.4229	0.3628	0.5769	0.03
Mof_C 	C 	0.557	0.5001	0.5118	-0.251
Mof_H 	H 	0.6035	0.4957	0.5195	-0.031
Mof_C 	C 	0.542	0.5109	0.4776	-0.25
Mof_H 	H 	0.5777	0.5093	0.4607	-0.039
Mof_C 	C 	0.4176	0.5102	0.4936	0.28
Mof_C 	C 	0.3496	0.5191	0.4858	-0.143
Mof_H 	H 	0.336	0.5213	0.4629	0.087
Mof_C 	C 	0.3034	0.526	0.5123	-0.082
Mof_H 	H 	0.264	0.5387	0.5072	0.058
Mof_C 	C 	0.316	0.512	0.5462	0.048
Mof_H 	H 	0.2782	0.5083	0.564	0.021
Mof_C 	C 	0.4337	0.5016	0.5279	0.266
Mof_N 	N 	0.05137	0.83533	0.88763	-0.132
Mof_O 	O 	0.03004	0.58897	0.95589	-0.413
Mof_O 	O 	0.10985	0.62829	0.0029	-0.412
Mof_C 	C 	0.09177	0.63903	0.97291	0.383
Mof_C 	C 	0.15107	0.72003	0.95576	-0.127
Mof_C 	C 	0.13737	0.73483	0.92164	0.068
Mof_H 	H 	0.08957	0.69613	0.91023	0.03
Mof_C 	C 	0.22367	0.83343	0.84513	-0.251
Mof_H 	H 	0.27017	0.82903	0.85283	-0.033
Mof_C 	C 	0.20867	0.84423	0.81093	-0.25
Mof_H 	H 	0.24437	0.84263	0.79403	-0.039
Mof_C 	C 	0.08427	0.84353	0.82693	0.281
Mof_C 	C 	0.01627	0.85243	0.81913	-0.138
Mof_H 	H 	0.00267	0.85463	0.79623	0.085
Mof_C 	C 	0.97007	0.85933	0.84563	-0.09
Mof_H 	H 	0.93067	0.87203	0.84053	0.061
Mof_C 	C 	0.98267	0.84533	0.87953	0.051
Mof_H 	H 	0.94487	0.84163	0.89733	0.02
Mof_C 	C 	0.10037	0.83493	0.86123	0.266
Mof_N 	N 	0.71803	0.16867	0.22097	-0.132
Mof_O 	O 	0.6967	0.92231	0.28923	-0.413
Mof_O 	O 	0.77651	0.96163	0.33624	-0.411
Mof_C 	C 	0.75843	0.97237	0.30625	0.382
Mof_C 	C 	0.81773	0.05337	0.2891	-0.126
Mof_C 	C 	0.80403	0.06817	0.25498	0.068
Mof_H 	H 	0.75623	0.02947	0.24357	0.03
Mof_C 	C 	0.89033	0.16677	0.17847	-0.252
Mof_H 	H 	0.93683	0.16237	0.18617	-0.033
Mof_C 	C 	0.87533	0.17757	0.14427	-0.251
Mof_H 	H 	0.91103	0.17597	0.12737	-0.039
Mof_C 	C 	0.75093	0.17687	0.16027	0.281
Mof_C 	C 	0.68293	0.18577	0.15247	-0.139
Mof_H 	H 	0.66933	0.18797	0.12957	0.086
Mof_C 	C 	0.63673	0.19267	0.17897	-0.089
Mof_H 	H 	0.59733	0.20537	0.17387	0.061
Mof_C 	C 	0.64933	0.17867	0.21287	0.051
Mof_H 	H 	0.61153	0.17497	0.23067	0.02
Mof_C 	C 	0.76703	0.16827	0.19457	0.266
Mof_N 	N 	0.1173	0.6153	0.5543	-0.131
Mof_O 	O 	0.89227	0.63663	0.62256	-0.413
Mof_O 	O 	0.85178	0.55682	0.66957	-0.411
Mof_C 	C 	0.8806	0.5749	0.63958	0.383
Mof_C 	C 	0.9023	0.5156	0.62243	-0.127
Mof_C 	C 	0.9308	0.5293	0.58831	0.068
Mof_H 	H 	0.9399	0.5771	0.5769	0.03
Mof_C 	C 	0.9431	0.443	0.5118	-0.251
Mof_H 	H 	0.8922	0.3965	0.5195	-0.031
Mof_C 	C 	0.9689	0.458	0.4776	-0.25
Mof_H 	H 	0.9316	0.4223	0.4607	-0.039
Mof_C 	C 	0.0926	0.5824	0.4936	0.28
Mof_C 	C 	0.1695	0.6504	0.4858	-0.143
Mof_H 	H 	0.1853	0.664	0.4629	0.087
Mof_C 	C 	0.2226	0.6966	0.5123	-0.082
Mof_H 	H 	0.2747	0.736	0.5072	0.058
Mof_C 	C 	0.196	0.684	0.5462	0.048
Mof_H 	H 	0.2301	0.7218	0.564	0.021
Mof_C 	C 	0.0679	0.5663	0.5279	0.266
Mof_N 	N 	0.78397	0.94863	0.88763	-0.129
Mof_O 	O 	0.55894	0.96996	0.95589	-0.413
Mof_O 	O 	0.51845	0.89015	0.0029	-0.411
Mof_C 	C 	0.54727	0.90823	0.97291	0.383
Mof_C 	C 	0.56897	0.84893	0.95576	-0.127
Mof_C 	C 	0.59747	0.86263	0.92164	0.068
Mof_H 	H 	0.60657	0.91043	0.91023	0.03
Mof_C 	C 	0.60977	0.77633	0.84513	-0.258
Mof_H 	H 	0.55887	0.72983	0.85283	-0.024
Mof_C 	C 	0.63557	0.79133	0.81093	-0.239
Mof_H 	H 	0.59827	0.75563	0.79403	-0.043
Mof_C 	C 	0.75927	0.91573	0.82693	0.278
Mof_C 	C 	0.83617	0.98373	0.81913	-0.151
Mof_H 	H 	0.85197	0.99733	0.79623	0.089
Mof_C 	C 	0.88927	0.02993	0.84563	-0.072
Mof_H 	H 	0.94137	0.06933	0.84053	0.053
Mof_C 	C 	0.86267	0.01733	0.87953	0.042
Mof_H 	H 	0.89677	0.05513	0.89733	0.023
Mof_C 	C 	0.73457	0.89963	0.86123	0.267
Mof_N 	N 	0.45063	0.28197	0.22097	-0.129
Mof_O 	O 	0.2256	0.3033	0.28923	-0.413
Mof_O 	O 	0.18511	0.22349	0.33624	-0.411
Mof_C 	C 	0.21393	0.24157	0.30625	0.383
Mof_C 	C 	0.23563	0.18227	0.2891	-0.126
Mof_C 	C 	0.26413	0.19597	0.25498	0.068
Mof_H 	H 	0.27323	0.24377	0.24357	0.03
Mof_C 	C 	0.27643	0.10967	0.17847	-0.259
Mof_H 	H 	0.22553	0.06317	0.18617	-0.025
Mof_C 	C 	0.30223	0.12467	0.14427	-0.238
Mof_H 	H 	0.26493	0.08897	0.12737	-0.044
Mof_C 	C 	0.42593	0.24907	0.16027	0.277
Mof_C 	C 	0.50283	0.31707	0.15247	-0.153
Mof_H 	H 	0.51863	0.33067	0.12957	0.09
Mof_C 	C 	0.55593	0.36327	0.17897	-0.067
Mof_H 	H 	0.60803	0.40267	0.17387	0.052
Mof_C 	C 	0.52933	0.35067	0.21287	0.041
Mof_H 	H 	0.56343	0.38847	0.23067	0.023
Mof_C 	C 	0.40123	0.23297	0.19457	0.266
Mof_N 	N 	0.498	0.8827	0.5543	-0.131
Mof_O 	O 	0.74436	0.10773	0.62256	-0.413
Mof_O 	O 	0.70504	0.14822	0.66957	-0.411
Mof_C 	C 	0.6943	0.1194	0.63958	0.383
Mof_C 	C 	0.6133	0.0977	0.62243	-0.127
Mof_C 	C 	0.5985	0.0692	0.58831	0.068
Mof_H 	H 	0.6372	0.0601	0.5769	0.03
Mof_C 	C 	0.4999	0.0569	0.5118	-0.252
Mof_H 	H 	0.5043	0.1078	0.5195	-0.031
Mof_C 	C 	0.4891	0.0311	0.4776	-0.25
Mof_H 	H 	0.4907	0.0684	0.4607	-0.039
Mof_C 	C 	0.4898	0.9074	0.4936	0.28
Mof_C 	C 	0.4809	0.8305	0.4858	-0.143
Mof_H 	H 	0.4787	0.8147	0.4629	0.087
Mof_C 	C 	0.474	0.7774	0.5123	-0.082
Mof_H 	H 	0.4613	0.7253	0.5072	0.058
Mof_C 	C 	0.488	0.804	0.5462	0.048
Mof_H 	H 	0.4917	0.7699	0.564	0.021
Mof_C 	C 	0.4984	0.9321	0.5279	0.266
Mof_N 	N 	0.16467	0.21603	0.88763	-0.133
Mof_O 	O 	0.41103	0.44106	0.95589	-0.413
Mof_O 	O 	0.37171	0.48155	0.0029	-0.411
Mof_C 	C 	0.36097	0.45273	0.97291	0.383
Mof_C 	C 	0.27997	0.43103	0.95576	-0.127
Mof_C 	C 	0.26517	0.40253	0.92164	0.068
Mof_H 	H 	0.30387	0.39343	0.91023	0.03
Mof_C 	C 	0.16657	0.39023	0.84513	-0.244
Mof_H 	H 	0.17097	0.44113	0.85283	-0.036
Mof_C 	C 	0.15577	0.36443	0.81093	-0.26
Mof_H 	H 	0.15737	0.40173	0.79403	-0.034
Mof_C 	C 	0.15647	0.24073	0.82693	0.282
Mof_C 	C 	0.14757	0.16383	0.81913	-0.135
Mof_H 	H 	0.14537	0.14803	0.79623	0.085
Mof_C 	C 	0.14067	0.11073	0.84563	-0.092
Mof_H 	H 	0.12797	0.05863	0.84053	0.062
Mof_C 	C 	0.15467	0.13733	0.87953	0.053
Mof_H 	H 	0.15837	0.10323	0.89733	0.02
Mof_C 	C 	0.16507	0.26543	0.86123	0.265
Mof_N 	N 	0.83133	0.54937	0.22097	-0.133
Mof_O 	O 	0.07769	0.7744	0.28923	-0.413
Mof_O 	O 	0.03837	0.81489	0.33624	-0.411
Mof_C 	C 	0.02763	0.78607	0.30625	0.382
Mof_C 	C 	0.94663	0.76437	0.2891	-0.126
Mof_C 	C 	0.93183	0.73587	0.25498	0.067
Mof_H 	H 	0.97053	0.72677	0.24357	0.03
Mof_C 	C 	0.83323	0.72357	0.17847	-0.244
Mof_H 	H 	0.83763	0.77447	0.18617	-0.037
Mof_C 	C 	0.82243	0.69777	0.14427	-0.261
Mof_H 	H 	0.82403	0.73507	0.12737	-0.034
Mof_C 	C 	0.82313	0.57407	0.16027	0.28
Mof_C 	C 	0.81423	0.49717	0.15247	-0.135
Mof_H 	H 	0.81203	0.48137	0.12957	0.085
Mof_C 	C 	0.80733	0.44407	0.17897	-0.091
Mof_H 	H 	0.79463	0.39197	0.17387	0.062
Mof_C 	C 	0.82133	0.47067	0.21287	0.052
Mof_H 	H 	0.82503	0.43657	0.23067	0.02
Mof_C 	C 	0.83173	0.59877	0.19457	0.264
Mof_Cu	Cu	0.85703	0.71406	0.63876	0.908
Mof_Cu	Cu	0.5237	0.04739	0.97209	0.908
Mof_Cu	Cu	0.19036	0.38073	0.30542	0.908
Mof_Cu	Cu	0.28594	0.14297	0.63876	0.908
Mof_Cu	Cu	0.95261	0.4763	0.97209	0.908
Mof_Cu	Cu	0.61927	0.80964	0.30542	0.908
Mof_Cu	Cu	0.85703	0.14297	0.63876	0.908
Mof_Cu	Cu	0.5237	0.4763	0.97209	0.908
Mof_Cu	Cu	0.19036	0.80964	0.30542	0.908
Mof_Cu	Cu	0.71406	0.85703	0.36124	0.908
Mof_Cu	Cu	0.38073	0.19036	0.69458	0.908
Mof_Cu	Cu	0.04739	0.5237	0.02791	0.908
Mof_Cu	Cu	0.14297	0.28594	0.36124	0.908
Mof_Cu	Cu	0.80964	0.61927	0.69458	0.908
Mof_Cu	Cu	0.4763	0.95261	0.02791	0.908
Mof_Cu	Cu	0.14297	0.85703	0.36124	0.908
Mof_Cu	Cu	0.80964	0.19036	0.69458	0.908
Mof_Cu	Cu	0.4763	0.5237	0.02791	0.908
Mof_C 	C 	0.55584	0.44416	0.63924	0.07
Mof_H 	H 	0.5653	0.4347	0.662	0.041
Mof_C 	C 	0.5272	0.4728	0.5714	-0.141
Mof_C 	C 	0.5029	0.4971	0.5373	0.237
Mof_C 	C 	0.4777	0.5223	0.4684	0.161
Mof_C 	C 	0.22251	0.77749	0.97257	0.07
Mof_H 	H 	0.23197	0.76803	0.99533	0.041
Mof_C 	C 	0.19387	0.80613	0.90473	-0.141
Mof_C 	C 	0.16957	0.83043	0.87063	0.237
Mof_C 	C 	0.14437	0.85563	0.80173	0.161
Mof_C 	C 	0.88917	0.11083	0.30591	0.07
Mof_H 	H 	0.89863	0.10137	0.32867	0.041
Mof_C 	C 	0.86053	0.13947	0.23807	-0.141
Mof_C 	C 	0.83623	0.16377	0.20397	0.238
Mof_C 	C 	0.81103	0.18897	0.13507	0.162
Mof_C 	C 	0.55584	0.11168	0.63924	0.07
Mof_H 	H 	0.5653	0.1306	0.662	0.041
Mof_C 	C 	0.5272	0.0544	0.5714	-0.141
Mof_C 	C 	0.5029	0.0058	0.5373	0.237
Mof_C 	C 	0.4777	0.9554	0.4684	0.161
Mof_C 	C 	0.22251	0.44501	0.97257	0.07
Mof_H 	H 	0.23197	0.46393	0.99533	0.041
Mof_C 	C 	0.19387	0.38773	0.90473	-0.141
Mof_C 	C 	0.16957	0.33913	0.87063	0.236
Mof_C 	C 	0.14437	0.28873	0.80173	0.16
Mof_C 	C 	0.88917	0.77835	0.30591	0.07
Mof_H 	H 	0.89863	0.79727	0.32867	0.041
Mof_C 	C 	0.86053	0.72107	0.23807	-0.141
Mof_C 	C 	0.83623	0.67247	0.20397	0.238
Mof_C 	C 	0.81103	0.62207	0.13507	0.162
Mof_C 	C 	0.88832	0.44416	0.63924	0.07
Mof_H 	H 	0.8694	0.4347	0.662	0.041
Mof_C 	C 	0.9456	0.4728	0.5714	-0.141
Mof_C 	C 	0.9942	0.4971	0.5373	0.237
Mof_C 	C 	0.0446	0.5223	0.4684	0.161
Mof_C 	C 	0.55499	0.77749	0.97257	0.07
Mof_H 	H 	0.53607	0.76803	0.99533	0.041
Mof_C 	C 	0.61227	0.80613	0.90473	-0.141
Mof_C 	C 	0.66087	0.83043	0.87063	0.236
Mof_C 	C 	0.71127	0.85563	0.80173	0.16
Mof_C 	C 	0.22165	0.11083	0.30591	0.07
Mof_H 	H 	0.20273	0.10137	0.32867	0.041
Mof_C 	C 	0.27893	0.13947	0.23807	-0.141
Mof_C 	C 	0.32753	0.16377	0.20397	0.238
Mof_C 	C 	0.37793	0.18897	0.13507	0.162
Mof_C 	C 	0.44416	0.55584	0.36076	0.07
Mof_H 	H 	0.4347	0.5653	0.338	0.041
Mof_C 	C 	0.4728	0.5272	0.4286	-0.141
Mof_C 	C 	0.4971	0.5029	0.4627	0.237
Mof_C 	C 	0.5223	0.4777	0.5316	0.161
Mof_C 	C 	0.11083	0.88917	0.69409	0.07
Mof_H 	H 	0.10137	0.89863	0.67133	0.041
Mof_C 	C 	0.13947	0.86053	0.76193	-0.141
Mof_C 	C 	0.16377	0.83623	0.79603	0.238
Mof_C 	C 	0.18897	0.81103	0.86493	0.162
Mof_C 	C 	0.77749	0.22251	0.02743	0.07
Mof_H 	H 	0.76803	0.23197	0.00467	0.041
Mof_C 	C 	0.80613	0.19387	0.09527	-0.141
Mof_C 	C 	0.83043	0.16957	0.12937	0.237
Mof_C 	C 	0.85563	0.14437	0.19827	0.161
Mof_C 	C 	0.11168	0.55584	0.36076	0.07
Mof_H 	H 	0.1306	0.5653	0.338	0.041
Mof_C 	C 	0.0544	0.5272	0.4286	-0.141
Mof_C 	C 	0.0058	0.5029	0.4627	0.237
Mof_C 	C 	0.9554	0.4777	0.5316	0.161
Mof_C 	C 	0.77835	0.88917	0.69409	0.07
Mof_H 	H 	0.79727	0.89863	0.67133	0.041
Mof_C 	C 	0.72107	0.86053	0.76193	-0.141
Mof_C 	C 	0.67247	0.83623	0.79603	0.238
Mof_C 	C 	0.62207	0.81103	0.86493	0.162
Mof_C 	C 	0.44501	0.22251	0.02743	0.07
Mof_H 	H 	0.46393	0.23197	0.00467	0.041
Mof_C 	C 	0.38773	0.19387	0.09527	-0.141
Mof_C 	C 	0.33913	0.16957	0.12937	0.236
Mof_C 	C 	0.28873	0.14437	0.19827	0.16
Mof_C 	C 	0.44416	0.88832	0.36076	0.07
Mof_H 	H 	0.4347	0.8694	0.338	0.041
Mof_C 	C 	0.4728	0.9456	0.4286	-0.141
Mof_C 	C 	0.4971	0.9942	0.4627	0.237
Mof_C 	C 	0.5223	0.0446	0.5316	0.161
Mof_C 	C 	0.11083	0.22165	0.69409	0.07
Mof_H 	H 	0.10137	0.20273	0.67133	0.041
Mof_C 	C 	0.13947	0.27893	0.76193	-0.141
Mof_C 	C 	0.16377	0.32753	0.79603	0.238
Mof_C 	C 	0.18897	0.37793	0.86493	0.162
Mof_C 	C 	0.77749	0.55499	0.02743	0.07
Mof_H 	H 	0.76803	0.53607	0.00467	0.041
Mof_C 	C 	0.80613	0.61227	0.09527	-0.141
Mof_C 	C 	0.83043	0.66087	0.12937	0.236
Mof_C 	C 	0.85563	0.71127	0.19827	0.16
_end
