# CIF file generated by openbabel 2.4.1, see http://openbabel.sf.net
data_I
_chemical_name_common 'image0'
_cell_length_a 17.2
_cell_length_b 17.2
_cell_length_c 17.2
_cell_angle_alpha 90
_cell_angle_beta 90
_cell_angle_gamma 90
_space_group_name_H-M_alt 'P 1'
_space_group_name_Hall 'P 1'
loop_
    _symmetry_equiv_pos_as_xyz
    x,y,z
loop_
    _atom_site_label
    _atom_site_type_symbol
    _atom_site_fract_x
    _atom_site_fract_y
    _atom_site_fract_z
    _atom_site_occupancy
    C1      C    0.53000   0.16750   0.43790   1.000
    C2      C    0.53200   0.08630   0.43600   1.000
    N1      N    0.55900   0.04600   0.36700   1.000
    C3      C    0.54430   0.99800   0.31200   1.000
    C4      C    0.60100   0.97100   0.24900   1.000
    C5      C    0.57400   0.95400   0.17500   1.000
    C6      C    0.73100   0.94000   0.20900   1.000
    C7      C    0.68000   0.96400   0.26600   1.000
    H1      H    0.55650   0.19330   0.39820   1.000
    H2      H    0.52130   0.95860   0.16320   1.000
    H3      H    0.60760   0.91790   0.06790   1.000
    H4      H    0.73900   0.90620   0.09640   1.000
    H5      H    0.78390   0.93510   0.22020   1.000
    H6      H    0.69760   0.97590   0.31550   1.000
    H7      H    0.55800   0.05870   0.39710   1.000
    C8      C    0.62600   0.93000   0.11800   1.000
    C9      C    0.70400   0.92200   0.13500   1.000
    C10     C    0.47000   0.83250   0.43790   1.000
    C11     C    0.46800   0.91370   0.43600   1.000
    N2      N    0.44100   0.95400   0.36700   1.000
    C12     C    0.45570   0.00200   0.31200   1.000
    C13     C    0.39900   0.02900   0.24900   1.000
    C14     C    0.42600   0.04600   0.17500   1.000
    C15     C    0.26900   0.06000   0.20900   1.000
    C16     C    0.32000   0.03600   0.26600   1.000
    H8      H    0.44350   0.80670   0.39820   1.000
    H9      H    0.47870   0.04140   0.16320   1.000
    H10     H    0.39240   0.08210   0.06790   1.000
    H11     H    0.26100   0.09380   0.09640   1.000
    H12     H    0.21610   0.06490   0.22020   1.000
    H13     H    0.30240   0.02410   0.31550   1.000
    H14     H    0.44200   0.94130   0.39710   1.000
    C17     C    0.37400   0.07000   0.11800   1.000
    C18     C    0.29600   0.07800   0.13500   1.000
    C19     C    0.47000   0.16750   0.56210   1.000
    C20     C    0.46800   0.08630   0.56400   1.000
    N3      N    0.44100   0.04600   0.63300   1.000
    C21     C    0.45570   0.99800   0.68800   1.000
    C22     C    0.39900   0.97100   0.75100   1.000
    C23     C    0.42600   0.95400   0.82500   1.000
    C24     C    0.26900   0.94000   0.79100   1.000
    C25     C    0.32000   0.96400   0.73400   1.000
    H15     H    0.44350   0.19330   0.60180   1.000
    H16     H    0.47870   0.95860   0.83680   1.000
    H17     H    0.39240   0.91790   0.93210   1.000
    H18     H    0.26100   0.90620   0.90360   1.000
    H19     H    0.21610   0.93510   0.77980   1.000
    H20     H    0.30240   0.97590   0.68450   1.000
    H21     H    0.44200   0.05870   0.60290   1.000
    C26     C    0.37400   0.93000   0.88200   1.000
    C27     C    0.29600   0.92200   0.86500   1.000
    C28     C    0.53000   0.83250   0.56210   1.000
    C29     C    0.53200   0.91370   0.56400   1.000
    N4      N    0.55900   0.95400   0.63300   1.000
    C30     C    0.54430   0.00200   0.68800   1.000
    C31     C    0.60100   0.02900   0.75100   1.000
    C32     C    0.57400   0.04600   0.82500   1.000
    C33     C    0.73100   0.06000   0.79100   1.000
    C34     C    0.68000   0.03600   0.73400   1.000
    H22     H    0.55650   0.80670   0.60180   1.000
    H23     H    0.52130   0.04140   0.83680   1.000
    H24     H    0.60760   0.08210   0.93210   1.000
    H25     H    0.73900   0.09380   0.90360   1.000
    H26     H    0.78390   0.06490   0.77980   1.000
    H27     H    0.69760   0.02410   0.68450   1.000
    H28     H    0.55800   0.94130   0.60290   1.000
    C35     C    0.62600   0.07000   0.88200   1.000
    C36     C    0.70400   0.07800   0.86500   1.000
    C37     C    0.43790   0.53000   0.16750   1.000
    C38     C    0.43600   0.53200   0.08630   1.000
    N5      N    0.36700   0.55900   0.04600   1.000
    C39     C    0.31200   0.54430   0.99800   1.000
    C40     C    0.24900   0.60100   0.97100   1.000
    C41     C    0.17500   0.57400   0.95400   1.000
    C42     C    0.20900   0.73100   0.94000   1.000
    C43     C    0.26600   0.68000   0.96400   1.000
    H29     H    0.39820   0.55650   0.19330   1.000
    H30     H    0.16320   0.52130   0.95860   1.000
    H31     H    0.06790   0.60760   0.91790   1.000
    H32     H    0.09640   0.73900   0.90620   1.000
    H33     H    0.22020   0.78390   0.93510   1.000
    H34     H    0.31550   0.69760   0.97590   1.000
    H35     H    0.39710   0.55800   0.05870   1.000
    C44     C    0.11800   0.62600   0.93000   1.000
    C45     C    0.13500   0.70400   0.92200   1.000
    C46     C    0.43790   0.47000   0.83250   1.000
    C47     C    0.43600   0.46800   0.91370   1.000
    N6      N    0.36700   0.44100   0.95400   1.000
    C48     C    0.31200   0.45570   0.00200   1.000
    C49     C    0.24900   0.39900   0.02900   1.000
    C50     C    0.17500   0.42600   0.04600   1.000
    C51     C    0.20900   0.26900   0.06000   1.000
    C52     C    0.26600   0.32000   0.03600   1.000
    H36     H    0.39820   0.44350   0.80670   1.000
    H37     H    0.16320   0.47870   0.04140   1.000
    H38     H    0.06790   0.39240   0.08210   1.000
    H39     H    0.09640   0.26100   0.09380   1.000
    H40     H    0.22020   0.21610   0.06490   1.000
    H41     H    0.31550   0.30240   0.02410   1.000
    H42     H    0.39710   0.44200   0.94130   1.000
    C53     C    0.11800   0.37400   0.07000   1.000
    C54     C    0.13500   0.29600   0.07800   1.000
    C55     C    0.56210   0.47000   0.16750   1.000
    C56     C    0.56400   0.46800   0.08630   1.000
    N7      N    0.63300   0.44100   0.04600   1.000
    C57     C    0.68800   0.45570   0.99800   1.000
    C58     C    0.75100   0.39900   0.97100   1.000
    C59     C    0.82500   0.42600   0.95400   1.000
    C60     C    0.79100   0.26900   0.94000   1.000
    C61     C    0.73400   0.32000   0.96400   1.000
    H43     H    0.60180   0.44350   0.19330   1.000
    H44     H    0.83680   0.47870   0.95860   1.000
    H45     H    0.93210   0.39240   0.91790   1.000
    H46     H    0.90360   0.26100   0.90620   1.000
    H47     H    0.77980   0.21610   0.93510   1.000
    H48     H    0.68450   0.30240   0.97590   1.000
    H49     H    0.60290   0.44200   0.05870   1.000
    C62     C    0.88200   0.37400   0.93000   1.000
    C63     C    0.86500   0.29600   0.92200   1.000
    C64     C    0.56210   0.53000   0.83250   1.000
    C65     C    0.56400   0.53200   0.91370   1.000
    N8      N    0.63300   0.55900   0.95400   1.000
    C66     C    0.68800   0.54430   0.00200   1.000
    C67     C    0.75100   0.60100   0.02900   1.000
    C68     C    0.82500   0.57400   0.04600   1.000
    C69     C    0.79100   0.73100   0.06000   1.000
    C70     C    0.73400   0.68000   0.03600   1.000
    H50     H    0.60180   0.55650   0.80670   1.000
    H51     H    0.83680   0.52130   0.04140   1.000
    H52     H    0.93210   0.60760   0.08210   1.000
    H53     H    0.90360   0.73900   0.09380   1.000
    H54     H    0.77980   0.78390   0.06490   1.000
    H55     H    0.68450   0.69760   0.02410   1.000
    H56     H    0.60290   0.55800   0.94130   1.000
    C71     C    0.88200   0.62600   0.07000   1.000
    C72     C    0.86500   0.70400   0.07800   1.000
    C73     C    0.16750   0.43790   0.53000   1.000
    C74     C    0.08630   0.43600   0.53200   1.000
    N9      N    0.04600   0.36700   0.55900   1.000
    C75     C    0.99800   0.31200   0.54430   1.000
    C76     C    0.97100   0.24900   0.60100   1.000
    C77     C    0.95400   0.17500   0.57400   1.000
    C78     C    0.94000   0.20900   0.73100   1.000
    C79     C    0.96400   0.26600   0.68000   1.000
    H57     H    0.19330   0.39820   0.55650   1.000
    H58     H    0.95860   0.16320   0.52130   1.000
    H59     H    0.91790   0.06790   0.60760   1.000
    H60     H    0.90620   0.09640   0.73900   1.000
    H61     H    0.93510   0.22020   0.78390   1.000
    H62     H    0.97590   0.31550   0.69760   1.000
    H63     H    0.05870   0.39710   0.55800   1.000
    C80     C    0.93000   0.11800   0.62600   1.000
    C81     C    0.92200   0.13500   0.70400   1.000
    C82     C    0.83250   0.43790   0.47000   1.000
    C83     C    0.91370   0.43600   0.46800   1.000
    N10     N    0.95400   0.36700   0.44100   1.000
    C84     C    0.00200   0.31200   0.45570   1.000
    C85     C    0.02900   0.24900   0.39900   1.000
    C86     C    0.04600   0.17500   0.42600   1.000
    C87     C    0.06000   0.20900   0.26900   1.000
    C88     C    0.03600   0.26600   0.32000   1.000
    H64     H    0.80670   0.39820   0.44350   1.000
    H65     H    0.04140   0.16320   0.47870   1.000
    H66     H    0.08210   0.06790   0.39240   1.000
    H67     H    0.09380   0.09640   0.26100   1.000
    H68     H    0.06490   0.22020   0.21610   1.000
    H69     H    0.02410   0.31550   0.30240   1.000
    H70     H    0.94130   0.39710   0.44200   1.000
    C89     C    0.07000   0.11800   0.37400   1.000
    C90     C    0.07800   0.13500   0.29600   1.000
    C91     C    0.16750   0.56210   0.47000   1.000
    C92     C    0.08630   0.56400   0.46800   1.000
    N11     N    0.04600   0.63300   0.44100   1.000
    C93     C    0.99800   0.68800   0.45570   1.000
    C94     C    0.97100   0.75100   0.39900   1.000
    C95     C    0.95400   0.82500   0.42600   1.000
    C96     C    0.94000   0.79100   0.26900   1.000
    C97     C    0.96400   0.73400   0.32000   1.000
    H71     H    0.19330   0.60180   0.44350   1.000
    H72     H    0.95860   0.83680   0.47870   1.000
    H73     H    0.91790   0.93210   0.39240   1.000
    H74     H    0.90620   0.90360   0.26100   1.000
    H75     H    0.93510   0.77980   0.21610   1.000
    H76     H    0.97590   0.68450   0.30240   1.000
    H77     H    0.05870   0.60290   0.44200   1.000
    C98     C    0.93000   0.88200   0.37400   1.000
    C99     C    0.92200   0.86500   0.29600   1.000
    C100    C    0.83250   0.56210   0.53000   1.000
    C101    C    0.91370   0.56400   0.53200   1.000
    N12     N    0.95400   0.63300   0.55900   1.000
    C102    C    0.00200   0.68800   0.54430   1.000
    C103    C    0.02900   0.75100   0.60100   1.000
    C104    C    0.04600   0.82500   0.57400   1.000
    C105    C    0.06000   0.79100   0.73100   1.000
    C106    C    0.03600   0.73400   0.68000   1.000
    H78     H    0.80670   0.60180   0.55650   1.000
    H79     H    0.04140   0.83680   0.52130   1.000
    H80     H    0.08210   0.93210   0.60760   1.000
    H81     H    0.09380   0.90360   0.73900   1.000
    H82     H    0.06490   0.77980   0.78390   1.000
    H83     H    0.02410   0.68450   0.69760   1.000
    H84     H    0.94130   0.60290   0.55800   1.000
    C107    C    0.07000   0.88200   0.62600   1.000
    C108    C    0.07800   0.86500   0.70400   1.000
    C109    C    0.16750   0.53000   0.43790   1.000
    C110    C    0.08630   0.53200   0.43600   1.000
    N13     N    0.04600   0.55900   0.36700   1.000
    C111    C    0.99800   0.54430   0.31200   1.000
    C112    C    0.97100   0.60100   0.24900   1.000
    C113    C    0.95400   0.57400   0.17500   1.000
    C114    C    0.94000   0.73100   0.20900   1.000
    C115    C    0.96400   0.68000   0.26600   1.000
    H85     H    0.19330   0.55650   0.39820   1.000
    H86     H    0.95860   0.52130   0.16320   1.000
    H87     H    0.91790   0.60760   0.06790   1.000
    H88     H    0.90620   0.73900   0.09640   1.000
    H89     H    0.93510   0.78390   0.22020   1.000
    H90     H    0.97590   0.69760   0.31550   1.000
    H91     H    0.05870   0.55800   0.39710   1.000
    C116    C    0.93000   0.62600   0.11800   1.000
    C117    C    0.92200   0.70400   0.13500   1.000
    C118    C    0.83250   0.47000   0.43790   1.000
    C119    C    0.91370   0.46800   0.43600   1.000
    N14     N    0.95400   0.44100   0.36700   1.000
    C120    C    0.00200   0.45570   0.31200   1.000
    C121    C    0.02900   0.39900   0.24900   1.000
    C122    C    0.04600   0.42600   0.17500   1.000
    C123    C    0.06000   0.26900   0.20900   1.000
    C124    C    0.03600   0.32000   0.26600   1.000
    H92     H    0.80670   0.44350   0.39820   1.000
    H93     H    0.04140   0.47870   0.16320   1.000
    H94     H    0.08210   0.39240   0.06790   1.000
    H95     H    0.09380   0.26100   0.09640   1.000
    H96     H    0.06490   0.21610   0.22020   1.000
    H97     H    0.02410   0.30240   0.31550   1.000
    H98     H    0.94130   0.44200   0.39710   1.000
    C125    C    0.07000   0.37400   0.11800   1.000
    C126    C    0.07800   0.29600   0.13500   1.000
    C127    C    0.16750   0.47000   0.56210   1.000
    C128    C    0.08630   0.46800   0.56400   1.000
    N15     N    0.04600   0.44100   0.63300   1.000
    C129    C    0.99800   0.45570   0.68800   1.000
    C130    C    0.97100   0.39900   0.75100   1.000
    C131    C    0.95400   0.42600   0.82500   1.000
    C132    C    0.94000   0.26900   0.79100   1.000
    C133    C    0.96400   0.32000   0.73400   1.000
    H99     H    0.19330   0.44350   0.60180   1.000
    H100    H    0.95860   0.47870   0.83680   1.000
    H101    H    0.91790   0.39240   0.93210   1.000
    H102    H    0.90620   0.26100   0.90360   1.000
    H103    H    0.93510   0.21610   0.77980   1.000
    H104    H    0.97590   0.30240   0.68450   1.000
    H105    H    0.05870   0.44200   0.60290   1.000
    C134    C    0.93000   0.37400   0.88200   1.000
    C135    C    0.92200   0.29600   0.86500   1.000
    C136    C    0.83250   0.53000   0.56210   1.000
    C137    C    0.91370   0.53200   0.56400   1.000
    N16     N    0.95400   0.55900   0.63300   1.000
    C138    C    0.00200   0.54430   0.68800   1.000
    C139    C    0.02900   0.60100   0.75100   1.000
    C140    C    0.04600   0.57400   0.82500   1.000
    C141    C    0.06000   0.73100   0.79100   1.000
    C142    C    0.03600   0.68000   0.73400   1.000
    H106    H    0.80670   0.55650   0.60180   1.000
    H107    H    0.04140   0.52130   0.83680   1.000
    H108    H    0.08210   0.60760   0.93210   1.000
    H109    H    0.09380   0.73900   0.90360   1.000
    H110    H    0.06490   0.78390   0.77980   1.000
    H111    H    0.02410   0.69760   0.68450   1.000
    H112    H    0.94130   0.55800   0.60290   1.000
    C143    C    0.07000   0.62600   0.88200   1.000
    C144    C    0.07800   0.70400   0.86500   1.000
    C145    C    0.53000   0.43790   0.16750   1.000
    C146    C    0.53200   0.43600   0.08630   1.000
    N17     N    0.55900   0.36700   0.04600   1.000
    C147    C    0.54430   0.31200   0.99800   1.000
    C148    C    0.60100   0.24900   0.97100   1.000
    C149    C    0.57400   0.17500   0.95400   1.000
    C150    C    0.73100   0.20900   0.94000   1.000
    C151    C    0.68000   0.26600   0.96400   1.000
    H113    H    0.55650   0.39820   0.19330   1.000
    H114    H    0.52130   0.16320   0.95860   1.000
    H115    H    0.60760   0.06790   0.91790   1.000
    H116    H    0.73900   0.09640   0.90620   1.000
    H117    H    0.78390   0.22020   0.93510   1.000
    H118    H    0.69760   0.31550   0.97590   1.000
    H119    H    0.55800   0.39710   0.05870   1.000
    C152    C    0.62600   0.11800   0.93000   1.000
    C153    C    0.70400   0.13500   0.92200   1.000
    C154    C    0.47000   0.43790   0.83250   1.000
    C155    C    0.46800   0.43600   0.91370   1.000
    N18     N    0.44100   0.36700   0.95400   1.000
    C156    C    0.45570   0.31200   0.00200   1.000
    C157    C    0.39900   0.24900   0.02900   1.000
    C158    C    0.42600   0.17500   0.04600   1.000
    C159    C    0.26900   0.20900   0.06000   1.000
    C160    C    0.32000   0.26600   0.03600   1.000
    H120    H    0.44350   0.39820   0.80670   1.000
    H121    H    0.47870   0.16320   0.04140   1.000
    H122    H    0.39240   0.06790   0.08210   1.000
    H123    H    0.26100   0.09640   0.09380   1.000
    H124    H    0.21610   0.22020   0.06490   1.000
    H125    H    0.30240   0.31550   0.02410   1.000
    H126    H    0.44200   0.39710   0.94130   1.000
    C161    C    0.37400   0.11800   0.07000   1.000
    C162    C    0.29600   0.13500   0.07800   1.000
    C163    C    0.47000   0.56210   0.16750   1.000
    C164    C    0.46800   0.56400   0.08630   1.000
    N19     N    0.44100   0.63300   0.04600   1.000
    C165    C    0.45570   0.68800   0.99800   1.000
    C166    C    0.39900   0.75100   0.97100   1.000
    C167    C    0.42600   0.82500   0.95400   1.000
    C168    C    0.26900   0.79100   0.94000   1.000
    C169    C    0.32000   0.73400   0.96400   1.000
    H127    H    0.44350   0.60180   0.19330   1.000
    H128    H    0.47870   0.83680   0.95860   1.000
    H129    H    0.39240   0.93210   0.91790   1.000
    H130    H    0.26100   0.90360   0.90620   1.000
    H131    H    0.21610   0.77980   0.93510   1.000
    H132    H    0.30240   0.68450   0.97590   1.000
    H133    H    0.44200   0.60290   0.05870   1.000
    C170    C    0.37400   0.88200   0.93000   1.000
    C171    C    0.29600   0.86500   0.92200   1.000
    C172    C    0.53000   0.56210   0.83250   1.000
    C173    C    0.53200   0.56400   0.91370   1.000
    N20     N    0.55900   0.63300   0.95400   1.000
    C174    C    0.54430   0.68800   0.00200   1.000
    C175    C    0.60100   0.75100   0.02900   1.000
    C176    C    0.57400   0.82500   0.04600   1.000
    C177    C    0.73100   0.79100   0.06000   1.000
    C178    C    0.68000   0.73400   0.03600   1.000
    H134    H    0.55650   0.60180   0.80670   1.000
    H135    H    0.52130   0.83680   0.04140   1.000
    H136    H    0.60760   0.93210   0.08210   1.000
    H137    H    0.73900   0.90360   0.09380   1.000
    H138    H    0.78390   0.77980   0.06490   1.000
    H139    H    0.69760   0.68450   0.02410   1.000
    H140    H    0.55800   0.60290   0.94130   1.000
    C179    C    0.62600   0.88200   0.07000   1.000
    C180    C    0.70400   0.86500   0.07800   1.000
    C181    C    0.43790   0.16750   0.53000   1.000
    C182    C    0.43600   0.08630   0.53200   1.000
    N21     N    0.36700   0.04600   0.55900   1.000
    C183    C    0.31200   0.99800   0.54430   1.000
    C184    C    0.24900   0.97100   0.60100   1.000
    C185    C    0.17500   0.95400   0.57400   1.000
    C186    C    0.20900   0.94000   0.73100   1.000
    C187    C    0.26600   0.96400   0.68000   1.000
    H141    H    0.39820   0.19330   0.55650   1.000
    H142    H    0.16320   0.95860   0.52130   1.000
    H143    H    0.06790   0.91790   0.60760   1.000
    H144    H    0.09640   0.90620   0.73900   1.000
    H145    H    0.22020   0.93510   0.78390   1.000
    H146    H    0.31550   0.97590   0.69760   1.000
    H147    H    0.39710   0.05870   0.55800   1.000
    C188    C    0.11800   0.93000   0.62600   1.000
    C189    C    0.13500   0.92200   0.70400   1.000
    C190    C    0.43790   0.83250   0.47000   1.000
    C191    C    0.43600   0.91370   0.46800   1.000
    N22     N    0.36700   0.95400   0.44100   1.000
    C192    C    0.31200   0.00200   0.45570   1.000
    C193    C    0.24900   0.02900   0.39900   1.000
    C194    C    0.17500   0.04600   0.42600   1.000
    C195    C    0.20900   0.06000   0.26900   1.000
    C196    C    0.26600   0.03600   0.32000   1.000
    H148    H    0.39820   0.80670   0.44350   1.000
    H149    H    0.16320   0.04140   0.47870   1.000
    H150    H    0.06790   0.08210   0.39240   1.000
    H151    H    0.09640   0.09380   0.26100   1.000
    H152    H    0.22020   0.06490   0.21610   1.000
    H153    H    0.31550   0.02410   0.30240   1.000
    H154    H    0.39710   0.94130   0.44200   1.000
    C197    C    0.11800   0.07000   0.37400   1.000
    C198    C    0.13500   0.07800   0.29600   1.000
    C199    C    0.56210   0.16750   0.47000   1.000
    C200    C    0.56400   0.08630   0.46800   1.000
    N23     N    0.63300   0.04600   0.44100   1.000
    C201    C    0.68800   0.99800   0.45570   1.000
    C202    C    0.75100   0.97100   0.39900   1.000
    C203    C    0.82500   0.95400   0.42600   1.000
    C204    C    0.79100   0.94000   0.26900   1.000
    C205    C    0.73400   0.96400   0.32000   1.000
    H155    H    0.60180   0.19330   0.44350   1.000
    H156    H    0.83680   0.95860   0.47870   1.000
    H157    H    0.93210   0.91790   0.39240   1.000
    H158    H    0.90360   0.90620   0.26100   1.000
    H159    H    0.77980   0.93510   0.21610   1.000
    H160    H    0.68450   0.97590   0.30240   1.000
    H161    H    0.60290   0.05870   0.44200   1.000
    C206    C    0.88200   0.93000   0.37400   1.000
    C207    C    0.86500   0.92200   0.29600   1.000
    C208    C    0.56210   0.83250   0.53000   1.000
    C209    C    0.56400   0.91370   0.53200   1.000
    N24     N    0.63300   0.95400   0.55900   1.000
    C210    C    0.68800   0.00200   0.54430   1.000
    C211    C    0.75100   0.02900   0.60100   1.000
    C212    C    0.82500   0.04600   0.57400   1.000
    C213    C    0.79100   0.06000   0.73100   1.000
    C214    C    0.73400   0.03600   0.68000   1.000
    H162    H    0.60180   0.80670   0.55650   1.000
    H163    H    0.83680   0.04140   0.52130   1.000
    H164    H    0.93210   0.08210   0.60760   1.000
    H165    H    0.90360   0.09380   0.73900   1.000
    H166    H    0.77980   0.06490   0.78390   1.000
    H167    H    0.68450   0.02410   0.69760   1.000
    H168    H    0.60290   0.94130   0.55800   1.000
    C215    C    0.88200   0.07000   0.62600   1.000
    C216    C    0.86500   0.07800   0.70400   1.000
    Zn1     Zn   0.56546   0.43454   0.43454   1.000
    Zn2     Zn   0.43454   0.56546   0.43454   1.000
    Zn3     Zn   0.43454   0.43454   0.56546   1.000
    Zn4     Zn   0.56546   0.56546   0.56546   1.000
    O1      O    0.54590   0.32540   0.45410   1.000
    O2      O    0.45410   0.67460   0.45410   1.000
    O3      O    0.45410   0.32540   0.54590   1.000
    O4      O    0.54590   0.67460   0.54590   1.000
    O5      O    0.45410   0.54590   0.32540   1.000
    O6      O    0.45410   0.45410   0.67460   1.000
    O7      O    0.54590   0.45410   0.32540   1.000
    O8      O    0.54590   0.54590   0.67460   1.000
    O9      O    0.32540   0.45410   0.54590   1.000
    O10     O    0.67460   0.45410   0.45410   1.000
    O11     O    0.32540   0.54590   0.45410   1.000
    O12     O    0.67460   0.54590   0.54590   1.000
    O13     O    0.50000   0.50000   0.50000   1.000
    C217    C    0.50000   0.28860   0.50000   1.000
    C218    C    0.50000   0.20760   0.50000   1.000
    C219    C    0.50000   0.04520   0.50000   1.000
    C220    C    0.50000   0.71140   0.50000   1.000
    C221    C    0.50000   0.79240   0.50000   1.000
    C222    C    0.50000   0.95480   0.50000   1.000
    C223    C    0.50000   0.50000   0.28860   1.000
    C224    C    0.50000   0.50000   0.20760   1.000
    C225    C    0.50000   0.50000   0.04520   1.000
    C226    C    0.50000   0.50000   0.71140   1.000
    C227    C    0.50000   0.50000   0.79240   1.000
    C228    C    0.50000   0.50000   0.95480   1.000
    C229    C    0.28860   0.50000   0.50000   1.000
    C230    C    0.20760   0.50000   0.50000   1.000
    C231    C    0.04520   0.50000   0.50000   1.000
    C232    C    0.71140   0.50000   0.50000   1.000
    C233    C    0.79240   0.50000   0.50000   1.000
    C234    C    0.95480   0.50000   0.50000   1.000
