data_functionalizedCrystal
_audit_creation_method	'EQeq! by Chris Wilmer'
_symmetry_space_group_name_H-M	'P1'
_symmetry_Int_Tables_number	1
_symmetry_cell_setting	triclinic
loop_
_symmetry_equiv_pos_as_xyz
  x,y,z
_cell_length_a	26.47
_cell_length_b	26.47
_cell_length_c	27.42
_cell_angle_alpha	90
_cell_angle_beta	90
_cell_angle_gamma	90
loop_
_atom_site_label
_atom_site_type_symbol
_atom_site_fract_x
_atom_site_fract_y
_atom_site_fract_z
_atom_site_charge
Mof_N 	N 	0.61278	0.78969	0.19051	-0.208
Mof_O 	O 	0.52507	0.57037	0.13673	-0.415
Mof_O 	O 	0.52686	0.56797	0.21787	-0.414
Mof_O 	O 	0.48882	0.93467	0.05034	-0.413
Mof_O 	O 	0.56371	0.97479	0.05004	-0.402
Mof_C 	C 	0.53341	0.58947	0.17752	0.39
Mof_C 	C 	0.55348	0.64234	0.17997	-0.174
Mof_C 	C 	0.56344	0.66367	0.22524	0.114
Mof_H 	H 	0.5573	0.6453	0.2535	0.005
Mof_C 	C 	0.58267	0.71248	0.22817	-0.219
Mof_H 	H 	0.5893	0.7267	0.2585	0.108
Mof_C 	C 	0.59191	0.73985	0.18664	0.185
Mof_C 	C 	0.58203	0.71873	0.1419	-0.223
Mof_H 	H 	0.5886	0.7371	0.1137	0.108
Mof_C 	C 	0.56236	0.67023	0.13851	0.118
Mof_H 	H 	0.5552	0.6565	0.1081	-0.003
Mof_C 	C 	0.53402	0.94044	0.06389	0.376
Mof_C 	C 	0.55475	0.90239	0.09898	-0.165
Mof_C 	C 	0.60576	0.90205	0.11171	0.114
Mof_H 	H 	0.6272	0.9266	0.099	0.004
Mof_C 	C 	0.62476	0.86599	0.14268	-0.217
Mof_H 	H 	0.6588	0.8666	0.1509	0.108
Mof_C 	C 	0.59369	0.8285	0.16194	0.185
Mof_C 	C 	0.54177	0.83038	0.15076	-0.214
Mof_H 	H 	0.5198	0.8071	0.1648	0.108
Mof_C 	C 	0.52335	0.866	0.11948	0.115
Mof_H 	H 	0.4892	0.8659	0.1117	0.002
Mof_C 	C 	0.65643	0.79586	0.22082	0.235
Mof_C 	C 	0.69302	0.75955	0.2206	-0.28
Mof_H 	H 	0.6896	0.7313	0.2007	0.131
Mof_C 	C 	0.4881	0.5405	0.3285	0.084
Mof_H 	H 	0.4798	0.5699	0.3119	0.009
Mof_N 	N 	0.4732	0.5841	0.4522	-0.136
Mof_C 	C 	0.4781	0.5899	0.4042	0.108
Mof_H 	H 	0.4759	0.6209	0.3884	-0.007
Mof_C 	C 	0.4876	0.5411	0.3785	-0.172
Mof_O 	O 	0.5177	0.4815	0.4518	-0.242
Mof_C 	C 	0.4482	0.6297	0.4731	-0.062
Mof_H 	H 	0.4656	0.6597	0.4615	0.044
Mof_H 	H 	0.4136	0.6312	0.4615	0.046
Mof_C 	C 	0.4784	0.547	0.028	-0.041
Mof_H 	H 	0.498	0.5755	0.0398	0.019
Mof_H 	H 	0.4441	0.5507	0.0398	0.022
Mof_C 	C 	0.3665	0.9246	0.9516	-0.042
Mof_H 	H 	0.3914	0.9057	0.9332	0.044
Mof_H 	H 	0.3615	0.9568	0.9354	0.046
Mof_C 	C 	0.3174	0.8957	0.9518	-0.002
Mof_H 	H 	0.2928	0.9147	0.933	0.029
Mof_H 	H 	0.3227	0.8638	0.9352	0.028
Mof_H 	H 	0.4094	0.8721	0.0285	0.044
Mof_H 	H 	0.3387	0.8306	0.9714	0.068
Mof_C 	C 	0.479	0.4525	0.0284	-0.022
Mof_H 	H 	0.4448	0.4483	0.0403	0.02
Mof_H 	H 	0.499	0.4244	0.0403	0.021
Mof_H 	H 	0.3407	0.9883	0.9715	0.077
Mof_H 	H 	0.2682	0.9476	0.0287	0.047
Mof_N 	N 	0.38722	0.21031	0.19051	-0.208
Mof_O 	O 	0.47493	0.42963	0.13673	-0.414
Mof_O 	O 	0.47314	0.43203	0.21787	-0.413
Mof_O 	O 	0.51118	0.06533	0.05034	-0.42
Mof_O 	O 	0.43629	0.02521	0.05004	-0.425
Mof_C 	C 	0.46659	0.41053	0.17752	0.391
Mof_C 	C 	0.44652	0.35766	0.17997	-0.173
Mof_C 	C 	0.43656	0.33633	0.22524	0.114
Mof_H 	H 	0.4427	0.3547	0.2535	0.006
Mof_C 	C 	0.41733	0.28752	0.22817	-0.218
Mof_H 	H 	0.4107	0.2733	0.2585	0.108
Mof_C 	C 	0.40809	0.26015	0.18664	0.186
Mof_C 	C 	0.41797	0.28127	0.1419	-0.222
Mof_H 	H 	0.4114	0.2629	0.1137	0.108
Mof_C 	C 	0.43764	0.32977	0.13851	0.119
Mof_H 	H 	0.4448	0.3435	0.1081	-0.002
Mof_C 	C 	0.46598	0.05956	0.06389	0.379
Mof_C 	C 	0.44525	0.09761	0.09898	-0.174
Mof_C 	C 	0.39424	0.09795	0.11171	0.118
Mof_H 	H 	0.3728	0.0734	0.099	-0.006
Mof_C 	C 	0.37524	0.13401	0.14268	-0.223
Mof_H 	H 	0.3412	0.1334	0.1509	0.107
Mof_C 	C 	0.40631	0.1715	0.16194	0.186
Mof_C 	C 	0.45823	0.16962	0.15076	-0.218
Mof_H 	H 	0.4802	0.1929	0.1648	0.109
Mof_C 	C 	0.47665	0.134	0.11948	0.119
Mof_H 	H 	0.5108	0.1341	0.1117	-0.002
Mof_C 	C 	0.34357	0.20414	0.22082	0.232
Mof_C 	C 	0.30698	0.24045	0.2206	-0.279
Mof_H 	H 	0.3104	0.2687	0.2007	0.129
Mof_C 	C 	0.5119	0.4595	0.3285	0.084
Mof_H 	H 	0.5202	0.4301	0.3119	0.009
Mof_N 	N 	0.5268	0.4159	0.4522	-0.136
Mof_C 	C 	0.5219	0.4101	0.4042	0.108
Mof_H 	H 	0.5241	0.3791	0.3884	-0.007
Mof_C 	C 	0.5124	0.4589	0.3785	-0.172
Mof_O 	O 	0.4823	0.5185	0.4518	-0.242
Mof_C 	C 	0.5518	0.3703	0.4731	-0.062
Mof_H 	H 	0.5344	0.3403	0.4615	0.044
Mof_H 	H 	0.5864	0.3688	0.4615	0.046
Mof_C 	C 	0.5216	0.453	0.028	-0.041
Mof_H 	H 	0.502	0.4245	0.0398	0.019
Mof_H 	H 	0.5559	0.4493	0.0398	0.022
Mof_C 	C 	0.6335	0.0754	0.9516	-0.038
Mof_H 	H 	0.6086	0.0943	0.9332	0.04
Mof_H 	H 	0.6385	0.0432	0.9354	0.037
Mof_C 	C 	0.6826	0.1043	0.9518	-0.003
Mof_H 	H 	0.7072	0.0853	0.933	0.027
Mof_H 	H 	0.6773	0.1362	0.9352	0.027
Mof_H 	H 	0.5906	0.1279	0.0285	0.044
Mof_H 	H 	0.6613	0.1694	0.9714	0.068
Mof_C 	C 	0.521	0.5475	0.0284	-0.022
Mof_H 	H 	0.5552	0.5517	0.0403	0.02
Mof_H 	H 	0.501	0.5756	0.0403	0.021
Mof_H 	H 	0.6593	0.0117	0.9715	0.064
Mof_H 	H 	0.7318	0.0524	0.0287	0.043
Mof_N 	N 	0.21031	0.61278	0.19051	-0.208
Mof_O 	O 	0.42963	0.52507	0.13673	-0.414
Mof_O 	O 	0.43203	0.52686	0.21787	-0.413
Mof_O 	O 	0.06533	0.48882	0.05034	-0.42
Mof_O 	O 	0.02521	0.56371	0.05004	-0.425
Mof_C 	C 	0.41053	0.53341	0.17752	0.391
Mof_C 	C 	0.35766	0.55348	0.17997	-0.173
Mof_C 	C 	0.33633	0.56344	0.22524	0.114
Mof_H 	H 	0.3547	0.5573	0.2535	0.006
Mof_C 	C 	0.28752	0.58267	0.22817	-0.218
Mof_H 	H 	0.2733	0.5893	0.2585	0.109
Mof_C 	C 	0.26015	0.59191	0.18664	0.186
Mof_C 	C 	0.28127	0.58203	0.1419	-0.222
Mof_H 	H 	0.2629	0.5886	0.1137	0.108
Mof_C 	C 	0.32977	0.56236	0.13851	0.119
Mof_H 	H 	0.3435	0.5552	0.1081	-0.002
Mof_C 	C 	0.05956	0.53402	0.06389	0.379
Mof_C 	C 	0.09761	0.55475	0.09898	-0.174
Mof_C 	C 	0.09795	0.60576	0.11171	0.118
Mof_H 	H 	0.0734	0.6272	0.099	-0.006
Mof_C 	C 	0.13401	0.62476	0.14268	-0.223
Mof_H 	H 	0.1334	0.6588	0.1509	0.107
Mof_C 	C 	0.1715	0.59369	0.16194	0.186
Mof_C 	C 	0.16962	0.54177	0.15076	-0.218
Mof_H 	H 	0.1929	0.5198	0.1648	0.109
Mof_C 	C 	0.134	0.52335	0.11948	0.119
Mof_H 	H 	0.1341	0.4892	0.1117	-0.002
Mof_C 	C 	0.20414	0.65643	0.22082	0.232
Mof_C 	C 	0.24045	0.69302	0.2206	-0.278
Mof_H 	H 	0.2687	0.6896	0.2007	0.13
Mof_C 	C 	0.4595	0.4881	0.3285	0.084
Mof_H 	H 	0.4301	0.4798	0.3119	0.009
Mof_N 	N 	0.4159	0.4732	0.4522	-0.136
Mof_C 	C 	0.4101	0.4781	0.4042	0.108
Mof_H 	H 	0.3791	0.4759	0.3884	-0.007
Mof_C 	C 	0.4589	0.4876	0.3785	-0.172
Mof_O 	O 	0.5185	0.5177	0.4518	-0.242
Mof_C 	C 	0.3703	0.4482	0.4731	-0.061
Mof_H 	H 	0.3403	0.4656	0.4615	0.044
Mof_H 	H 	0.3688	0.4136	0.4615	0.046
Mof_C 	C 	0.453	0.4784	0.028	-0.041
Mof_H 	H 	0.4245	0.498	0.0398	0.019
Mof_H 	H 	0.4493	0.4441	0.0398	0.022
Mof_C 	C 	0.0754	0.3665	0.9516	-0.038
Mof_H 	H 	0.0943	0.3914	0.9332	0.04
Mof_H 	H 	0.0432	0.3615	0.9354	0.037
Mof_C 	C 	0.1043	0.3174	0.9518	-0.003
Mof_H 	H 	0.0853	0.2928	0.933	0.026
Mof_H 	H 	0.1362	0.3227	0.9352	0.026
Mof_H 	H 	0.1279	0.4094	0.0285	0.044
Mof_H 	H 	0.1694	0.3387	0.9714	0.068
Mof_C 	C 	0.5475	0.479	0.0284	-0.022
Mof_H 	H 	0.5517	0.4448	0.0403	0.02
Mof_H 	H 	0.5756	0.499	0.0403	0.021
Mof_H 	H 	0.0117	0.3407	0.9715	0.063
Mof_H 	H 	0.0524	0.2682	0.0287	0.043
Mof_N 	N 	0.78969	0.38722	0.19051	-0.207
Mof_O 	O 	0.57037	0.47493	0.13673	-0.414
Mof_O 	O 	0.56797	0.47314	0.21787	-0.413
Mof_O 	O 	0.93467	0.51118	0.05034	-0.412
Mof_O 	O 	0.97479	0.43629	0.05004	-0.401
Mof_C 	C 	0.58947	0.46659	0.17752	0.391
Mof_C 	C 	0.64234	0.44652	0.17997	-0.173
Mof_C 	C 	0.66367	0.43656	0.22524	0.115
Mof_H 	H 	0.6453	0.4427	0.2535	0.006
Mof_C 	C 	0.71248	0.41733	0.22817	-0.218
Mof_H 	H 	0.7267	0.4107	0.2585	0.109
Mof_C 	C 	0.73985	0.40809	0.18664	0.186
Mof_C 	C 	0.71873	0.41797	0.1419	-0.222
Mof_H 	H 	0.7371	0.4114	0.1137	0.108
Mof_C 	C 	0.67023	0.43764	0.13851	0.119
Mof_H 	H 	0.6565	0.4448	0.1081	-0.002
Mof_C 	C 	0.94044	0.46598	0.06389	0.376
Mof_C 	C 	0.90239	0.44525	0.09898	-0.165
Mof_C 	C 	0.90205	0.39424	0.11171	0.114
Mof_H 	H 	0.9266	0.3728	0.099	0.004
Mof_C 	C 	0.86599	0.37524	0.14268	-0.216
Mof_H 	H 	0.8666	0.3412	0.1509	0.108
Mof_C 	C 	0.8285	0.40631	0.16194	0.185
Mof_C 	C 	0.83038	0.45823	0.15076	-0.213
Mof_H 	H 	0.8071	0.4802	0.1648	0.108
Mof_C 	C 	0.866	0.47665	0.11948	0.115
Mof_H 	H 	0.8659	0.5108	0.1117	0.002
Mof_C 	C 	0.79586	0.34357	0.22082	0.234
Mof_C 	C 	0.75955	0.30698	0.2206	-0.281
Mof_H 	H 	0.7313	0.3104	0.2007	0.13
Mof_C 	C 	0.5405	0.5119	0.3285	0.084
Mof_H 	H 	0.5699	0.5202	0.3119	0.009
Mof_N 	N 	0.5841	0.5268	0.4522	-0.136
Mof_C 	C 	0.5899	0.5219	0.4042	0.108
Mof_H 	H 	0.6209	0.5241	0.3884	-0.007
Mof_C 	C 	0.5411	0.5124	0.3785	-0.172
Mof_O 	O 	0.4815	0.4823	0.4518	-0.242
Mof_C 	C 	0.6297	0.5518	0.4731	-0.062
Mof_H 	H 	0.6597	0.5344	0.4615	0.044
Mof_H 	H 	0.6312	0.5864	0.4615	0.046
Mof_C 	C 	0.547	0.5216	0.028	-0.041
Mof_H 	H 	0.5755	0.502	0.0398	0.019
Mof_H 	H 	0.5507	0.5559	0.0398	0.022
Mof_C 	C 	0.9246	0.6335	0.9516	-0.042
Mof_H 	H 	0.9057	0.6086	0.9332	0.044
Mof_H 	H 	0.9568	0.6385	0.9354	0.046
Mof_C 	C 	0.8957	0.6826	0.9518	-0.002
Mof_H 	H 	0.9147	0.7072	0.933	0.03
Mof_H 	H 	0.8638	0.6773	0.9352	0.028
Mof_H 	H 	0.8721	0.5906	0.0285	0.044
Mof_H 	H 	0.8306	0.6613	0.9714	0.069
Mof_C 	C 	0.4525	0.521	0.0284	-0.022
Mof_H 	H 	0.4483	0.5552	0.0403	0.02
Mof_H 	H 	0.4244	0.501	0.0403	0.021
Mof_H 	H 	0.9883	0.6593	0.9715	0.076
Mof_H 	H 	0.9476	0.7318	0.0287	0.047
Mof_N 	N 	0.88722	0.28969	0.30949	-0.212
Mof_O 	O 	0.97493	0.07037	0.36327	-0.406
Mof_O 	O 	0.97314	0.06797	0.28213	-0.405
Mof_O 	O 	0.01118	0.43467	0.44966	-0.437
Mof_O 	O 	0.93629	0.47479	0.44996	-0.416
Mof_C 	C 	0.96659	0.08947	0.32248	0.388
Mof_C 	C 	0.94652	0.14234	0.32003	-0.169
Mof_C 	C 	0.93656	0.16367	0.27476	0.114
Mof_H 	H 	0.9427	0.1453	0.2465	0.008
Mof_C 	C 	0.91733	0.21248	0.27183	-0.216
Mof_H 	H 	0.9107	0.2267	0.2415	0.11
Mof_C 	C 	0.90809	0.23985	0.31336	0.188
Mof_C 	C 	0.91797	0.21873	0.3581	-0.221
Mof_H 	H 	0.9114	0.2371	0.3863	0.112
Mof_C 	C 	0.93764	0.17023	0.36149	0.119
Mof_H 	H 	0.9448	0.1565	0.3919	0.002
Mof_C 	C 	0.96598	0.44044	0.43611	0.42
Mof_C 	C 	0.94525	0.40239	0.40102	-0.21
Mof_C 	C 	0.89424	0.40205	0.38829	0.151
Mof_H 	H 	0.8728	0.4266	0.401	-0.011
Mof_C 	C 	0.87524	0.36599	0.35732	-0.247
Mof_H 	H 	0.8412	0.3666	0.3491	0.118
Mof_C 	C 	0.90631	0.3285	0.33806	0.212
Mof_C 	C 	0.95823	0.33038	0.34924	-0.264
Mof_H 	H 	0.9802	0.3071	0.3352	0.131
Mof_C 	C 	0.97665	0.366	0.38052	0.2
Mof_H 	H 	0.0108	0.3659	0.3883	-0.042
Mof_C 	C 	0.84357	0.29586	0.27918	0.235
Mof_C 	C 	0.80698	0.25955	0.2794	-0.281
Mof_H 	H 	0.8104	0.2313	0.2993	0.13
Mof_C 	C 	0.0119	0.0405	0.1715	0.051
Mof_H 	H 	0.0202	0.0699	0.1881	0.014
Mof_N 	N 	0.0268	0.0841	0.0478	-0.128
Mof_C 	C 	0.0219	0.0899	0.0958	0.086
Mof_H 	H 	0.0241	0.1209	0.1116	-0.005
Mof_C 	C 	0.0124	0.0411	0.1215	-0.146
Mof_O 	O 	0.9823	0.9815	0.0482	-0.206
Mof_C 	C 	0.0518	0.1297	0.0269	-0.099
Mof_H 	H 	0.0344	0.1597	0.0385	0.047
Mof_H 	H 	0.0864	0.1312	0.0385	0.05
Mof_C 	C 	0.0216	0.047	0.472	-0.124
Mof_H 	H 	0.002	0.0755	0.4602	0.021
Mof_H 	H 	0.0559	0.0507	0.4602	0.049
Mof_C 	C 	0.1335	0.4246	0.5484	-0.067
Mof_H 	H 	0.1086	0.4057	0.5668	0.049
Mof_H 	H 	0.1385	0.4568	0.5646	0.048
Mof_C 	C 	0.1826	0.3957	0.5482	-0.03
Mof_H 	H 	0.2072	0.4147	0.567	0.034
Mof_H 	H 	0.1773	0.3638	0.5648	0.033
Mof_H 	H 	0.0906	0.3721	0.4715	0.035
Mof_H 	H 	0.1613	0.3306	0.5286	0.042
Mof_C 	C 	0.021	0.9525	0.4716	-0.237
Mof_H 	H 	0.0552	0.9483	0.4597	0.065
Mof_H 	H 	0.001	0.9244	0.4597	0.065
Mof_H 	H 	0.1593	0.4883	0.5285	0.045
Mof_H 	H 	0.2318	0.4476	0.4713	0.037
Mof_N 	N 	0.11278	0.71031	0.30949	-0.203
Mof_O 	O 	0.02507	0.92963	0.36327	-0.409
Mof_O 	O 	0.02686	0.93203	0.28213	-0.41
Mof_O 	O 	0.98882	0.56533	0.44966	-0.387
Mof_O 	O 	0.06371	0.52521	0.44996	-0.402
Mof_C 	C 	0.03341	0.91053	0.32248	0.389
Mof_C 	C 	0.05348	0.85766	0.32003	-0.172
Mof_C 	C 	0.06344	0.83633	0.27476	0.113
Mof_H 	H 	0.0573	0.8547	0.2465	0.003
Mof_C 	C 	0.08267	0.78752	0.27183	-0.217
Mof_H 	H 	0.0893	0.7733	0.2415	0.106
Mof_C 	C 	0.09191	0.76015	0.31336	0.185
Mof_C 	C 	0.08203	0.78127	0.3581	-0.221
Mof_H 	H 	0.0886	0.7629	0.3863	0.11
Mof_C 	C 	0.06236	0.82977	0.36149	0.118
Mof_H 	H 	0.0552	0.8435	0.3919	-0
Mof_C 	C 	0.03402	0.55956	0.43611	0.337
Mof_C 	C 	0.05475	0.59761	0.40102	-0.126
Mof_C 	C 	0.10576	0.59795	0.38829	0.082
Mof_H 	H 	0.1272	0.5734	0.401	0.012
Mof_C 	C 	0.12476	0.63401	0.35732	-0.19
Mof_H 	H 	0.1588	0.6334	0.3491	0.099
Mof_C 	C 	0.09369	0.6715	0.33806	0.16
Mof_C 	C 	0.04177	0.66962	0.34924	-0.167
Mof_H 	H 	0.0198	0.6929	0.3352	0.087
Mof_C 	C 	0.02335	0.634	0.38052	0.037
Mof_H 	H 	0.9892	0.6341	0.3883	0.044
Mof_C 	C 	0.15643	0.70414	0.27918	0.232
Mof_C 	C 	0.19302	0.74045	0.2794	-0.278
Mof_H 	H 	0.1896	0.7687	0.2993	0.131
Mof_C 	C 	0.9881	0.9595	0.1715	0.098
Mof_H 	H 	0.9798	0.9301	0.1881	0.012
Mof_N 	N 	0.9732	0.9159	0.0478	-0.13
Mof_C 	C 	0.9781	0.9101	0.0958	0.091
Mof_H 	H 	0.9759	0.8791	0.1116	0.002
Mof_C 	C 	0.9876	0.9589	0.1215	-0.117
Mof_O 	O 	0.0177	0.0185	0.0482	-0.254
Mof_C 	C 	0.9482	0.8703	0.0269	-0.099
Mof_H 	H 	0.9656	0.8403	0.0385	0.053
Mof_H 	H 	0.9136	0.8688	0.0385	0.055
Mof_C 	C 	0.9784	0.953	0.472	0.069
Mof_H 	H 	0.998	0.9245	0.4602	0.017
Mof_H 	H 	0.9441	0.9493	0.4602	-0.008
Mof_C 	C 	0.8665	0.5754	0.5484	-0.068
Mof_H 	H 	0.8914	0.5943	0.5668	0.05
Mof_H 	H 	0.8615	0.5432	0.5646	0.05
Mof_C 	C 	0.8174	0.6043	0.5482	-0.031
Mof_H 	H 	0.7928	0.5853	0.567	0.035
Mof_H 	H 	0.8227	0.6362	0.5648	0.035
Mof_H 	H 	0.9094	0.6279	0.4715	0.038
Mof_H 	H 	0.8387	0.6694	0.5286	0.045
Mof_C 	C 	0.979	0.0475	0.4716	0.226
Mof_H 	H 	0.9448	0.0517	0.4597	-0.029
Mof_H 	H 	0.999	0.0756	0.4597	-0.03
Mof_H 	H 	0.8407	0.5117	0.5285	0.046
Mof_H 	H 	0.7682	0.5524	0.4713	0.037
Mof_N 	N 	0.28969	0.11278	0.30949	-0.203
Mof_O 	O 	0.07037	0.02507	0.36327	-0.422
Mof_O 	O 	0.06797	0.02686	0.28213	-0.422
Mof_O 	O 	0.43467	0.98882	0.44966	-0.387
Mof_O 	O 	0.47479	0.06371	0.44996	-0.401
Mof_C 	C 	0.08947	0.03341	0.32248	0.39
Mof_C 	C 	0.14234	0.05348	0.32003	-0.177
Mof_C 	C 	0.16367	0.06344	0.27476	0.114
Mof_H 	H 	0.1453	0.0573	0.2465	0.001
Mof_C 	C 	0.21248	0.08267	0.27183	-0.22
Mof_H 	H 	0.2267	0.0893	0.2415	0.106
Mof_C 	C 	0.23985	0.09191	0.31336	0.185
Mof_C 	C 	0.21873	0.08203	0.3581	-0.223
Mof_H 	H 	0.2371	0.0886	0.3863	0.11
Mof_C 	C 	0.17023	0.06236	0.36149	0.119
Mof_H 	H 	0.1565	0.0552	0.3919	-0.003
Mof_C 	C 	0.44044	0.03402	0.43611	0.336
Mof_C 	C 	0.40239	0.05475	0.40102	-0.125
Mof_C 	C 	0.40205	0.10576	0.38829	0.081
Mof_H 	H 	0.4266	0.1272	0.401	0.012
Mof_C 	C 	0.36599	0.12476	0.35732	-0.189
Mof_H 	H 	0.3666	0.1588	0.3491	0.098
Mof_C 	C 	0.3285	0.09369	0.33806	0.159
Mof_C 	C 	0.33038	0.04177	0.34924	-0.165
Mof_H 	H 	0.3071	0.0198	0.3352	0.086
Mof_C 	C 	0.366	0.02335	0.38052	0.034
Mof_H 	H 	0.3659	0.9892	0.3883	0.045
Mof_C 	C 	0.29586	0.15643	0.27918	0.231
Mof_C 	C 	0.25955	0.19302	0.2794	-0.278
Mof_H 	H 	0.2313	0.1896	0.2993	0.129
Mof_C 	C 	0.0405	0.9881	0.1715	0.08
Mof_H 	H 	0.0699	0.9798	0.1881	0.015
Mof_N 	N 	0.0841	0.9732	0.0478	-0.13
Mof_C 	C 	0.0899	0.9781	0.0958	0.093
Mof_H 	H 	0.1209	0.9759	0.1116	0.001
Mof_C 	C 	0.0411	0.9876	0.1215	-0.129
Mof_O 	O 	0.9815	0.0177	0.0482	-0.191
Mof_C 	C 	0.1297	0.9482	0.0269	-0.099
Mof_H 	H 	0.1597	0.9656	0.0385	0.053
Mof_H 	H 	0.1312	0.9136	0.0385	0.05
Mof_C 	C 	0.047	0.9784	0.472	0.202
Mof_H 	H 	0.0755	0.998	0.4602	-0.028
Mof_H 	H 	0.0507	0.9441	0.4602	-0.023
Mof_C 	C 	0.4246	0.8665	0.5484	-0.067
Mof_H 	H 	0.4057	0.8914	0.5668	0.05
Mof_H 	H 	0.4568	0.8615	0.5646	0.05
Mof_C 	C 	0.3957	0.8174	0.5482	-0.031
Mof_H 	H 	0.4147	0.7928	0.567	0.035
Mof_H 	H 	0.3638	0.8227	0.5648	0.035
Mof_H 	H 	0.3721	0.9094	0.4715	0.038
Mof_H 	H 	0.3306	0.8387	0.5286	0.044
Mof_C 	C 	0.9525	0.979	0.4716	0.085
Mof_H 	H 	0.9483	0.9448	0.4597	-0.013
Mof_H 	H 	0.9244	0.999	0.4597	0.019
Mof_H 	H 	0.4883	0.8407	0.5285	0.046
Mof_H 	H 	0.4476	0.7682	0.4713	0.037
Mof_N 	N 	0.71031	0.88722	0.30949	-0.211
Mof_O 	O 	0.92963	0.97493	0.36327	-0.395
Mof_O 	O 	0.93203	0.97314	0.28213	-0.395
Mof_O 	O 	0.56533	0.01118	0.44966	-0.437
Mof_O 	O 	0.52521	0.93629	0.44996	-0.416
Mof_C 	C 	0.91053	0.96659	0.32248	0.387
Mof_C 	C 	0.85766	0.94652	0.32003	-0.166
Mof_C 	C 	0.83633	0.93656	0.27476	0.113
Mof_H 	H 	0.8547	0.9427	0.2465	0.01
Mof_C 	C 	0.78752	0.91733	0.27183	-0.215
Mof_H 	H 	0.7733	0.9107	0.2415	0.109
Mof_C 	C 	0.76015	0.90809	0.31336	0.187
Mof_C 	C 	0.78127	0.91797	0.3581	-0.219
Mof_H 	H 	0.7629	0.9114	0.3863	0.112
Mof_C 	C 	0.82977	0.93764	0.36149	0.118
Mof_H 	H 	0.8435	0.9448	0.3919	0.004
Mof_C 	C 	0.55956	0.96598	0.43611	0.419
Mof_C 	C 	0.59761	0.94525	0.40102	-0.208
Mof_C 	C 	0.59795	0.89424	0.38829	0.151
Mof_H 	H 	0.5734	0.8728	0.401	-0.01
Mof_C 	C 	0.63401	0.87524	0.35732	-0.246
Mof_H 	H 	0.6334	0.8412	0.3491	0.118
Mof_C 	C 	0.6715	0.90631	0.33806	0.212
Mof_C 	C 	0.66962	0.95823	0.34924	-0.262
Mof_H 	H 	0.6929	0.9802	0.3352	0.131
Mof_C 	C 	0.634	0.97665	0.38052	0.198
Mof_H 	H 	0.6341	0.0108	0.3883	-0.041
Mof_C 	C 	0.70414	0.84357	0.27918	0.236
Mof_C 	C 	0.74045	0.80698	0.2794	-0.281
Mof_H 	H 	0.7687	0.8104	0.2993	0.132
Mof_C 	C 	0.9595	0.0119	0.1715	0.082
Mof_H 	H 	0.9301	0.0202	0.1881	0.007
Mof_N 	N 	0.9159	0.0268	0.0478	-0.129
Mof_C 	C 	0.9101	0.0219	0.0958	0.086
Mof_H 	H 	0.8791	0.0241	0.1116	-0.003
Mof_C 	C 	0.9589	0.0124	0.1215	-0.135
Mof_O 	O 	0.0185	0.9823	0.0482	-0.242
Mof_C 	C 	0.8703	0.0518	0.0269	-0.098
Mof_H 	H 	0.8403	0.0344	0.0385	0.047
Mof_H 	H 	0.8688	0.0864	0.0385	0.055
Mof_C 	C 	0.953	0.0216	0.472	-0.251
Mof_H 	H 	0.9245	0.002	0.4602	0.06
Mof_H 	H 	0.9493	0.0559	0.4602	0.063
Mof_C 	C 	0.5754	0.1335	0.5484	-0.067
Mof_H 	H 	0.5943	0.1086	0.5668	0.049
Mof_H 	H 	0.5432	0.1385	0.5646	0.048
Mof_C 	C 	0.6043	0.1826	0.5482	-0.03
Mof_H 	H 	0.5853	0.2072	0.567	0.034
Mof_H 	H 	0.6362	0.1773	0.5648	0.033
Mof_H 	H 	0.6279	0.0906	0.4715	0.035
Mof_H 	H 	0.6694	0.1613	0.5286	0.042
Mof_C 	C 	0.0475	0.021	0.4716	-0.102
Mof_H 	H 	0.0517	0.0552	0.4597	0.051
Mof_H 	H 	0.0756	0.001	0.4597	0.023
Mof_H 	H 	0.5117	0.1593	0.5285	0.044
Mof_H 	H 	0.5524	0.2318	0.4713	0.037
Mof_N 	N 	0.38722	0.21031	0.80949	-0.207
Mof_O 	O 	0.47493	0.42963	0.86327	-0.412
Mof_O 	O 	0.47314	0.43203	0.78213	-0.413
Mof_O 	O 	0.51118	0.06533	0.94966	-0.408
Mof_O 	O 	0.43629	0.02521	0.94996	-0.412
Mof_C 	C 	0.46659	0.41053	0.82248	0.391
Mof_C 	C 	0.44652	0.35766	0.82003	-0.172
Mof_C 	C 	0.43656	0.33633	0.77476	0.115
Mof_H 	H 	0.4427	0.3547	0.7465	0.006
Mof_C 	C 	0.41733	0.28752	0.77183	-0.218
Mof_H 	H 	0.4107	0.2733	0.7415	0.108
Mof_C 	C 	0.40809	0.26015	0.81336	0.187
Mof_C 	C 	0.41797	0.28127	0.8581	-0.221
Mof_H 	H 	0.4114	0.2629	0.8863	0.113
Mof_C 	C 	0.43764	0.32977	0.86149	0.12
Mof_H 	H 	0.4448	0.3435	0.8919	0.003
Mof_C 	C 	0.46598	0.05956	0.93611	0.378
Mof_C 	C 	0.44525	0.09761	0.90102	-0.169
Mof_C 	C 	0.39424	0.09795	0.88829	0.118
Mof_H 	H 	0.3728	0.0734	0.901	-0.002
Mof_C 	C 	0.37524	0.13401	0.85732	-0.22
Mof_H 	H 	0.3412	0.1334	0.8491	0.108
Mof_C 	C 	0.40631	0.1715	0.83806	0.186
Mof_C 	C 	0.45823	0.16962	0.84924	-0.216
Mof_H 	H 	0.4802	0.1929	0.8352	0.109
Mof_C 	C 	0.47665	0.134	0.88052	0.118
Mof_H 	H 	0.5108	0.1341	0.8883	0.001
Mof_C 	C 	0.34357	0.20414	0.77918	0.233
Mof_C 	C 	0.30698	0.24045	0.7794	-0.279
Mof_H 	H 	0.3104	0.2687	0.7993	0.131
Mof_C 	C 	0.5119	0.4595	0.6715	0.084
Mof_H 	H 	0.5202	0.4301	0.6881	0.009
Mof_N 	N 	0.5268	0.4159	0.5478	-0.136
Mof_C 	C 	0.5219	0.4101	0.5958	0.108
Mof_H 	H 	0.5241	0.3791	0.6116	-0.007
Mof_C 	C 	0.5124	0.4589	0.6215	-0.172
Mof_O 	O 	0.4823	0.5185	0.5482	-0.242
Mof_C 	C 	0.5518	0.3703	0.5269	-0.062
Mof_H 	H 	0.5344	0.3403	0.5385	0.044
Mof_H 	H 	0.5864	0.3688	0.5385	0.046
Mof_C 	C 	0.5216	0.453	0.972	-0.023
Mof_H 	H 	0.502	0.4245	0.9602	0.018
Mof_H 	H 	0.5559	0.4493	0.9602	0.021
Mof_C 	C 	0.6335	0.0754	0.0484	-0.054
Mof_H 	H 	0.6086	0.0943	0.0668	0.043
Mof_H 	H 	0.6385	0.0432	0.0646	0.041
Mof_C 	C 	0.6826	0.1043	0.0482	-0.018
Mof_H 	H 	0.7072	0.0853	0.067	0.028
Mof_H 	H 	0.6773	0.1362	0.0648	0.029
Mof_H 	H 	0.5906	0.1279	0.9715	0.06
Mof_H 	H 	0.6613	0.1694	0.0286	0.051
Mof_C 	C 	0.521	0.5475	0.9716	-0.001
Mof_H 	H 	0.5552	0.5517	0.9597	0.018
Mof_H 	H 	0.501	0.5756	0.9597	0.02
Mof_H 	H 	0.6593	0.0117	0.0285	0.048
Mof_H 	H 	0.7318	0.0524	0.9713	0.06
Mof_N 	N 	0.61278	0.78969	0.80949	-0.207
Mof_O 	O 	0.52507	0.57037	0.86327	-0.412
Mof_O 	O 	0.52686	0.56797	0.78213	-0.413
Mof_O 	O 	0.48882	0.93467	0.94966	-0.399
Mof_O 	O 	0.56371	0.97479	0.94996	-0.388
Mof_C 	C 	0.53341	0.58947	0.82248	0.391
Mof_C 	C 	0.55348	0.64234	0.82003	-0.172
Mof_C 	C 	0.56344	0.66367	0.77476	0.115
Mof_H 	H 	0.5573	0.6453	0.7465	0.006
Mof_C 	C 	0.58267	0.71248	0.77183	-0.218
Mof_H 	H 	0.5893	0.7267	0.7415	0.109
Mof_C 	C 	0.59191	0.73985	0.81336	0.188
Mof_C 	C 	0.58203	0.71873	0.8581	-0.222
Mof_H 	H 	0.5886	0.7371	0.8863	0.114
Mof_C 	C 	0.56236	0.67023	0.86149	0.12
Mof_H 	H 	0.5552	0.6565	0.8919	0.003
Mof_C 	C 	0.53402	0.94044	0.93611	0.375
Mof_C 	C 	0.55475	0.90239	0.90102	-0.16
Mof_C 	C 	0.60576	0.90205	0.88829	0.114
Mof_H 	H 	0.6272	0.9266	0.901	0.007
Mof_C 	C 	0.62476	0.86599	0.85732	-0.214
Mof_H 	H 	0.6588	0.8666	0.8491	0.11
Mof_C 	C 	0.59369	0.8285	0.83806	0.185
Mof_C 	C 	0.54177	0.83038	0.84924	-0.211
Mof_H 	H 	0.5198	0.8071	0.8352	0.109
Mof_C 	C 	0.52335	0.866	0.88052	0.115
Mof_H 	H 	0.4892	0.8659	0.8883	0.004
Mof_C 	C 	0.65643	0.79586	0.77918	0.236
Mof_C 	C 	0.69302	0.75955	0.7794	-0.28
Mof_H 	H 	0.6896	0.7313	0.7993	0.133
Mof_C 	C 	0.4881	0.5405	0.6715	0.084
Mof_H 	H 	0.4798	0.5699	0.6881	0.009
Mof_N 	N 	0.4732	0.5841	0.5478	-0.136
Mof_C 	C 	0.4781	0.5899	0.5958	0.108
Mof_H 	H 	0.4759	0.6209	0.6116	-0.006
Mof_C 	C 	0.4876	0.5411	0.6215	-0.172
Mof_O 	O 	0.5177	0.4815	0.5482	-0.242
Mof_C 	C 	0.4482	0.6297	0.5269	-0.062
Mof_H 	H 	0.4656	0.6597	0.5385	0.044
Mof_H 	H 	0.4136	0.6312	0.5385	0.046
Mof_C 	C 	0.4784	0.547	0.972	-0.023
Mof_H 	H 	0.498	0.5755	0.9602	0.018
Mof_H 	H 	0.4441	0.5507	0.9602	0.021
Mof_C 	C 	0.3665	0.9246	0.0484	-0.058
Mof_H 	H 	0.3914	0.9057	0.0668	0.047
Mof_H 	H 	0.3615	0.9568	0.0646	0.05
Mof_C 	C 	0.3174	0.8957	0.0482	-0.017
Mof_H 	H 	0.2928	0.9147	0.067	0.031
Mof_H 	H 	0.3227	0.8638	0.0648	0.029
Mof_H 	H 	0.4094	0.8721	0.9715	0.06
Mof_H 	H 	0.3387	0.8306	0.0286	0.051
Mof_C 	C 	0.479	0.4525	0.9716	-0.001
Mof_H 	H 	0.4448	0.4483	0.9597	0.018
Mof_H 	H 	0.499	0.4244	0.9597	0.02
Mof_H 	H 	0.3407	0.9883	0.0285	0.061
Mof_H 	H 	0.2682	0.9476	0.9713	0.063
Mof_N 	N 	0.78969	0.38722	0.80949	-0.207
Mof_O 	O 	0.57037	0.47493	0.86327	-0.412
Mof_O 	O 	0.56797	0.47314	0.78213	-0.413
Mof_O 	O 	0.93467	0.51118	0.94966	-0.399
Mof_O 	O 	0.97479	0.43629	0.94996	-0.388
Mof_C 	C 	0.58947	0.46659	0.82248	0.391
Mof_C 	C 	0.64234	0.44652	0.82003	-0.172
Mof_C 	C 	0.66367	0.43656	0.77476	0.115
Mof_H 	H 	0.6453	0.4427	0.7465	0.006
Mof_C 	C 	0.71248	0.41733	0.77183	-0.218
Mof_H 	H 	0.7267	0.4107	0.7415	0.109
Mof_C 	C 	0.73985	0.40809	0.81336	0.188
Mof_C 	C 	0.71873	0.41797	0.8581	-0.222
Mof_H 	H 	0.7371	0.4114	0.8863	0.114
Mof_C 	C 	0.67023	0.43764	0.86149	0.12
Mof_H 	H 	0.6565	0.4448	0.8919	0.003
Mof_C 	C 	0.94044	0.46598	0.93611	0.375
Mof_C 	C 	0.90239	0.44525	0.90102	-0.16
Mof_C 	C 	0.90205	0.39424	0.88829	0.114
Mof_H 	H 	0.9266	0.3728	0.901	0.008
Mof_C 	C 	0.86599	0.37524	0.85732	-0.213
Mof_H 	H 	0.8666	0.3412	0.8491	0.11
Mof_C 	C 	0.8285	0.40631	0.83806	0.185
Mof_C 	C 	0.83038	0.45823	0.84924	-0.211
Mof_H 	H 	0.8071	0.4802	0.8352	0.109
Mof_C 	C 	0.866	0.47665	0.88052	0.115
Mof_H 	H 	0.8659	0.5108	0.8883	0.004
Mof_C 	C 	0.79586	0.34357	0.77918	0.235
Mof_C 	C 	0.75955	0.30698	0.7794	-0.281
Mof_H 	H 	0.7313	0.3104	0.7993	0.132
Mof_C 	C 	0.5405	0.5119	0.6715	0.084
Mof_H 	H 	0.5699	0.5202	0.6881	0.009
Mof_N 	N 	0.5841	0.5268	0.5478	-0.136
Mof_C 	C 	0.5899	0.5219	0.5958	0.108
Mof_H 	H 	0.6209	0.5241	0.6116	-0.006
Mof_C 	C 	0.5411	0.5124	0.6215	-0.172
Mof_O 	O 	0.4815	0.4823	0.5482	-0.242
Mof_C 	C 	0.6297	0.5518	0.5269	-0.062
Mof_H 	H 	0.6597	0.5344	0.5385	0.044
Mof_H 	H 	0.6312	0.5864	0.5385	0.046
Mof_C 	C 	0.547	0.5216	0.972	-0.023
Mof_H 	H 	0.5755	0.502	0.9602	0.018
Mof_H 	H 	0.5507	0.5559	0.9602	0.021
Mof_C 	C 	0.9246	0.6335	0.0484	-0.058
Mof_H 	H 	0.9057	0.6086	0.0668	0.047
Mof_H 	H 	0.9568	0.6385	0.0646	0.05
Mof_C 	C 	0.8957	0.6826	0.0482	-0.018
Mof_H 	H 	0.9147	0.7072	0.067	0.031
Mof_H 	H 	0.8638	0.6773	0.0648	0.03
Mof_H 	H 	0.8721	0.5906	0.9715	0.06
Mof_H 	H 	0.8306	0.6613	0.0286	0.052
Mof_C 	C 	0.4525	0.521	0.9716	-0.001
Mof_H 	H 	0.4483	0.5552	0.9597	0.018
Mof_H 	H 	0.4244	0.501	0.9597	0.02
Mof_H 	H 	0.9883	0.6593	0.0285	0.06
Mof_H 	H 	0.9476	0.7318	0.9713	0.063
Mof_N 	N 	0.21031	0.61278	0.80949	-0.207
Mof_O 	O 	0.42963	0.52507	0.86327	-0.412
Mof_O 	O 	0.43203	0.52686	0.78213	-0.413
Mof_O 	O 	0.06533	0.48882	0.94966	-0.408
Mof_O 	O 	0.02521	0.56371	0.94996	-0.412
Mof_C 	C 	0.41053	0.53341	0.82248	0.391
Mof_C 	C 	0.35766	0.55348	0.82003	-0.172
Mof_C 	C 	0.33633	0.56344	0.77476	0.115
Mof_H 	H 	0.3547	0.5573	0.7465	0.006
Mof_C 	C 	0.28752	0.58267	0.77183	-0.218
Mof_H 	H 	0.2733	0.5893	0.7415	0.109
Mof_C 	C 	0.26015	0.59191	0.81336	0.187
Mof_C 	C 	0.28127	0.58203	0.8581	-0.221
Mof_H 	H 	0.2629	0.5886	0.8863	0.113
Mof_C 	C 	0.32977	0.56236	0.86149	0.12
Mof_H 	H 	0.3435	0.5552	0.8919	0.003
Mof_C 	C 	0.05956	0.53402	0.93611	0.378
Mof_C 	C 	0.09761	0.55475	0.90102	-0.169
Mof_C 	C 	0.09795	0.60576	0.88829	0.118
Mof_H 	H 	0.0734	0.6272	0.901	-0.002
Mof_C 	C 	0.13401	0.62476	0.85732	-0.22
Mof_H 	H 	0.1334	0.6588	0.8491	0.108
Mof_C 	C 	0.1715	0.59369	0.83806	0.187
Mof_C 	C 	0.16962	0.54177	0.84924	-0.216
Mof_H 	H 	0.1929	0.5198	0.8352	0.109
Mof_C 	C 	0.134	0.52335	0.88052	0.118
Mof_H 	H 	0.1341	0.4892	0.8883	0.001
Mof_C 	C 	0.20414	0.65643	0.77918	0.233
Mof_C 	C 	0.24045	0.69302	0.7794	-0.278
Mof_H 	H 	0.2687	0.6896	0.7993	0.132
Mof_C 	C 	0.4595	0.4881	0.6715	0.084
Mof_H 	H 	0.4301	0.4798	0.6881	0.009
Mof_N 	N 	0.4159	0.4732	0.5478	-0.136
Mof_C 	C 	0.4101	0.4781	0.5958	0.108
Mof_H 	H 	0.3791	0.4759	0.6116	-0.007
Mof_C 	C 	0.4589	0.4876	0.6215	-0.172
Mof_O 	O 	0.5185	0.5177	0.5482	-0.242
Mof_C 	C 	0.3703	0.4482	0.5269	-0.062
Mof_H 	H 	0.3403	0.4656	0.5385	0.044
Mof_H 	H 	0.3688	0.4136	0.5385	0.046
Mof_C 	C 	0.453	0.4784	0.972	-0.023
Mof_H 	H 	0.4245	0.498	0.9602	0.018
Mof_H 	H 	0.4493	0.4441	0.9602	0.021
Mof_C 	C 	0.0754	0.3665	0.0484	-0.054
Mof_H 	H 	0.0943	0.3914	0.0668	0.043
Mof_H 	H 	0.0432	0.3615	0.0646	0.041
Mof_C 	C 	0.1043	0.3174	0.0482	-0.018
Mof_H 	H 	0.0853	0.2928	0.067	0.028
Mof_H 	H 	0.1362	0.3227	0.0648	0.028
Mof_H 	H 	0.1279	0.4094	0.9715	0.06
Mof_H 	H 	0.1694	0.3387	0.0286	0.051
Mof_C 	C 	0.5475	0.479	0.9716	-0.001
Mof_H 	H 	0.5517	0.4448	0.9597	0.018
Mof_H 	H 	0.5756	0.499	0.9597	0.02
Mof_H 	H 	0.0117	0.3407	0.0285	0.048
Mof_H 	H 	0.0524	0.2682	0.9713	0.059
Mof_N 	N 	0.11278	0.71031	0.69051	-0.203
Mof_O 	O 	0.02507	0.92963	0.63673	-0.409
Mof_O 	O 	0.02686	0.93203	0.71787	-0.41
Mof_O 	O 	0.98882	0.56533	0.55034	-0.387
Mof_O 	O 	0.06371	0.52521	0.55004	-0.402
Mof_C 	C 	0.03341	0.91053	0.67752	0.389
Mof_C 	C 	0.05348	0.85766	0.67997	-0.172
Mof_C 	C 	0.06344	0.83633	0.72524	0.114
Mof_H 	H 	0.0573	0.8547	0.7535	0.004
Mof_C 	C 	0.08267	0.78752	0.72817	-0.218
Mof_H 	H 	0.0893	0.7733	0.7585	0.107
Mof_C 	C 	0.09191	0.76015	0.68664	0.185
Mof_C 	C 	0.08203	0.78127	0.6419	-0.221
Mof_H 	H 	0.0886	0.7629	0.6137	0.11
Mof_C 	C 	0.06236	0.82977	0.63851	0.118
Mof_H 	H 	0.0552	0.8435	0.6081	-0
Mof_C 	C 	0.03402	0.55956	0.56389	0.337
Mof_C 	C 	0.05475	0.59761	0.59898	-0.126
Mof_C 	C 	0.10576	0.59795	0.61171	0.082
Mof_H 	H 	0.1272	0.5734	0.599	0.012
Mof_C 	C 	0.12476	0.63401	0.64268	-0.19
Mof_H 	H 	0.1588	0.6334	0.6509	0.099
Mof_C 	C 	0.09369	0.6715	0.66194	0.16
Mof_C 	C 	0.04177	0.66962	0.65076	-0.167
Mof_H 	H 	0.0198	0.6929	0.6648	0.087
Mof_C 	C 	0.02335	0.634	0.61948	0.037
Mof_H 	H 	0.9892	0.6341	0.6117	0.044
Mof_C 	C 	0.15643	0.70414	0.72082	0.232
Mof_C 	C 	0.19302	0.74045	0.7206	-0.278
Mof_H 	H 	0.1896	0.7687	0.7007	0.132
Mof_C 	C 	0.9881	0.9595	0.8285	0.096
Mof_H 	H 	0.9798	0.9301	0.8119	0.013
Mof_N 	N 	0.9732	0.9159	0.9522	-0.13
Mof_C 	C 	0.9781	0.9101	0.9042	0.092
Mof_H 	H 	0.9759	0.8791	0.8884	0.003
Mof_C 	C 	0.9876	0.9589	0.8785	-0.114
Mof_O 	O 	0.0177	0.0185	0.9518	-0.247
Mof_C 	C 	0.9482	0.8703	0.9731	-0.024
Mof_H 	H 	0.9656	0.8403	0.9615	0.04
Mof_H 	H 	0.9136	0.8688	0.9615	0.043
Mof_C 	C 	0.9784	0.953	0.528	0.069
Mof_H 	H 	0.998	0.9245	0.5398	0.017
Mof_H 	H 	0.9441	0.9493	0.5398	-0.008
Mof_C 	C 	0.8665	0.5754	0.4516	-0.068
Mof_H 	H 	0.8914	0.5943	0.4332	0.05
Mof_H 	H 	0.8615	0.5432	0.4354	0.05
Mof_C 	C 	0.8174	0.6043	0.4518	-0.031
Mof_H 	H 	0.7928	0.5853	0.433	0.035
Mof_H 	H 	0.8227	0.6362	0.4352	0.035
Mof_H 	H 	0.9094	0.6279	0.5285	0.038
Mof_H 	H 	0.8387	0.6694	0.4714	0.045
Mof_C 	C 	0.979	0.0475	0.5284	0.226
Mof_H 	H 	0.9448	0.0517	0.5403	-0.029
Mof_H 	H 	0.999	0.0756	0.5403	-0.03
Mof_H 	H 	0.8407	0.5117	0.4715	0.046
Mof_H 	H 	0.7682	0.5524	0.5287	0.037
Mof_N 	N 	0.88722	0.28969	0.69051	-0.212
Mof_O 	O 	0.97493	0.07037	0.63673	-0.406
Mof_O 	O 	0.97314	0.06797	0.71787	-0.405
Mof_O 	O 	0.01118	0.43467	0.55034	-0.437
Mof_O 	O 	0.93629	0.47479	0.55004	-0.416
Mof_C 	C 	0.96659	0.08947	0.67752	0.389
Mof_C 	C 	0.94652	0.14234	0.67997	-0.169
Mof_C 	C 	0.93656	0.16367	0.72524	0.114
Mof_H 	H 	0.9427	0.1453	0.7535	0.009
Mof_C 	C 	0.91733	0.21248	0.72817	-0.217
Mof_H 	H 	0.9107	0.2267	0.7585	0.111
Mof_C 	C 	0.90809	0.23985	0.68664	0.188
Mof_C 	C 	0.91797	0.21873	0.6419	-0.222
Mof_H 	H 	0.9114	0.2371	0.6137	0.112
Mof_C 	C 	0.93764	0.17023	0.63851	0.12
Mof_H 	H 	0.9448	0.1565	0.6081	0.002
Mof_C 	C 	0.96598	0.44044	0.56389	0.42
Mof_C 	C 	0.94525	0.40239	0.59898	-0.21
Mof_C 	C 	0.89424	0.40205	0.61171	0.151
Mof_H 	H 	0.8728	0.4266	0.599	-0.011
Mof_C 	C 	0.87524	0.36599	0.64268	-0.247
Mof_H 	H 	0.8412	0.3666	0.6509	0.118
Mof_C 	C 	0.90631	0.3285	0.66194	0.212
Mof_C 	C 	0.95823	0.33038	0.65076	-0.264
Mof_H 	H 	0.9802	0.3071	0.6648	0.132
Mof_C 	C 	0.97665	0.366	0.61948	0.2
Mof_H 	H 	0.0108	0.3659	0.6117	-0.042
Mof_C 	C 	0.84357	0.29586	0.72082	0.236
Mof_C 	C 	0.80698	0.25955	0.7206	-0.281
Mof_H 	H 	0.8104	0.2313	0.7007	0.131
Mof_C 	C 	0.0119	0.0405	0.8285	0.049
Mof_H 	H 	0.0202	0.0699	0.8119	0.015
Mof_N 	N 	0.0268	0.0841	0.9522	-0.129
Mof_C 	C 	0.0219	0.0899	0.9042	0.087
Mof_H 	H 	0.0241	0.1209	0.8884	-0.003
Mof_C 	C 	0.0124	0.0411	0.8785	-0.143
Mof_O 	O 	0.9823	0.9815	0.9518	-0.2
Mof_C 	C 	0.0518	0.1297	0.9731	-0.024
Mof_H 	H 	0.0344	0.1597	0.9615	0.035
Mof_H 	H 	0.0864	0.1312	0.9615	0.038
Mof_C 	C 	0.0216	0.047	0.528	-0.125
Mof_H 	H 	0.002	0.0755	0.5398	0.021
Mof_H 	H 	0.0559	0.0507	0.5398	0.049
Mof_C 	C 	0.1335	0.4246	0.4516	-0.067
Mof_H 	H 	0.1086	0.4057	0.4332	0.049
Mof_H 	H 	0.1385	0.4568	0.4354	0.048
Mof_C 	C 	0.1826	0.3957	0.4518	-0.03
Mof_H 	H 	0.2072	0.4147	0.433	0.034
Mof_H 	H 	0.1773	0.3638	0.4352	0.033
Mof_H 	H 	0.0906	0.3721	0.5285	0.035
Mof_H 	H 	0.1613	0.3306	0.4714	0.042
Mof_C 	C 	0.021	0.9525	0.5284	-0.237
Mof_H 	H 	0.0552	0.9483	0.5403	0.065
Mof_H 	H 	0.001	0.9244	0.5403	0.065
Mof_H 	H 	0.1593	0.4883	0.4715	0.045
Mof_H 	H 	0.2318	0.4476	0.5287	0.037
Mof_N 	N 	0.71031	0.88722	0.69051	-0.212
Mof_O 	O 	0.92963	0.97493	0.63673	-0.395
Mof_O 	O 	0.93203	0.97314	0.71787	-0.395
Mof_O 	O 	0.56533	0.01118	0.55034	-0.437
Mof_O 	O 	0.52521	0.93629	0.55004	-0.416
Mof_C 	C 	0.91053	0.96659	0.67752	0.387
Mof_C 	C 	0.85766	0.94652	0.67997	-0.166
Mof_C 	C 	0.83633	0.93656	0.72524	0.113
Mof_H 	H 	0.8547	0.9427	0.7535	0.01
Mof_C 	C 	0.78752	0.91733	0.72817	-0.215
Mof_H 	H 	0.7733	0.9107	0.7585	0.111
Mof_C 	C 	0.76015	0.90809	0.68664	0.187
Mof_C 	C 	0.78127	0.91797	0.6419	-0.219
Mof_H 	H 	0.7629	0.9114	0.6137	0.112
Mof_C 	C 	0.82977	0.93764	0.63851	0.119
Mof_H 	H 	0.8435	0.9448	0.6081	0.004
Mof_C 	C 	0.55956	0.96598	0.56389	0.419
Mof_C 	C 	0.59761	0.94525	0.59898	-0.208
Mof_C 	C 	0.59795	0.89424	0.61171	0.151
Mof_H 	H 	0.5734	0.8728	0.599	-0.01
Mof_C 	C 	0.63401	0.87524	0.64268	-0.246
Mof_H 	H 	0.6334	0.8412	0.6509	0.118
Mof_C 	C 	0.6715	0.90631	0.66194	0.212
Mof_C 	C 	0.66962	0.95823	0.65076	-0.263
Mof_H 	H 	0.6929	0.9802	0.6648	0.131
Mof_C 	C 	0.634	0.97665	0.61948	0.198
Mof_H 	H 	0.6341	0.0108	0.6117	-0.041
Mof_C 	C 	0.70414	0.84357	0.72082	0.236
Mof_C 	C 	0.74045	0.80698	0.7206	-0.281
Mof_H 	H 	0.7687	0.8104	0.7007	0.133
Mof_C 	C 	0.9595	0.0119	0.8285	0.081
Mof_H 	H 	0.9301	0.0202	0.8119	0.008
Mof_N 	N 	0.9159	0.0268	0.9522	-0.129
Mof_C 	C 	0.9101	0.0219	0.9042	0.087
Mof_H 	H 	0.8791	0.0241	0.8884	-0.002
Mof_C 	C 	0.9589	0.0124	0.8785	-0.132
Mof_O 	O 	0.0185	0.9823	0.9518	-0.236
Mof_C 	C 	0.8703	0.0518	0.9731	-0.023
Mof_H 	H 	0.8403	0.0344	0.9615	0.035
Mof_H 	H 	0.8688	0.0864	0.9615	0.043
Mof_C 	C 	0.953	0.0216	0.528	-0.251
Mof_H 	H 	0.9245	0.002	0.5398	0.06
Mof_H 	H 	0.9493	0.0559	0.5398	0.063
Mof_C 	C 	0.5754	0.1335	0.4516	-0.067
Mof_H 	H 	0.5943	0.1086	0.4332	0.049
Mof_H 	H 	0.5432	0.1385	0.4354	0.048
Mof_C 	C 	0.6043	0.1826	0.4518	-0.03
Mof_H 	H 	0.5853	0.2072	0.433	0.034
Mof_H 	H 	0.6362	0.1773	0.4352	0.033
Mof_H 	H 	0.6279	0.0906	0.5285	0.035
Mof_H 	H 	0.6694	0.1613	0.4714	0.042
Mof_C 	C 	0.0475	0.021	0.5284	-0.102
Mof_H 	H 	0.0517	0.0552	0.5403	0.051
Mof_H 	H 	0.0756	0.001	0.5403	0.023
Mof_H 	H 	0.5117	0.1593	0.4715	0.044
Mof_H 	H 	0.5524	0.2318	0.5287	0.037
Mof_N 	N 	0.28969	0.11278	0.69051	-0.203
Mof_O 	O 	0.07037	0.02507	0.63673	-0.422
Mof_O 	O 	0.06797	0.02686	0.71787	-0.422
Mof_O 	O 	0.43467	0.98882	0.55034	-0.387
Mof_O 	O 	0.47479	0.06371	0.55004	-0.401
Mof_C 	C 	0.08947	0.03341	0.67752	0.39
Mof_C 	C 	0.14234	0.05348	0.67997	-0.177
Mof_C 	C 	0.16367	0.06344	0.72524	0.115
Mof_H 	H 	0.1453	0.0573	0.7535	0.002
Mof_C 	C 	0.21248	0.08267	0.72817	-0.22
Mof_H 	H 	0.2267	0.0893	0.7585	0.107
Mof_C 	C 	0.23985	0.09191	0.68664	0.186
Mof_C 	C 	0.21873	0.08203	0.6419	-0.223
Mof_H 	H 	0.2371	0.0886	0.6137	0.11
Mof_C 	C 	0.17023	0.06236	0.63851	0.119
Mof_H 	H 	0.1565	0.0552	0.6081	-0.003
Mof_C 	C 	0.44044	0.03402	0.56389	0.336
Mof_C 	C 	0.40239	0.05475	0.59898	-0.125
Mof_C 	C 	0.40205	0.10576	0.61171	0.081
Mof_H 	H 	0.4266	0.1272	0.599	0.012
Mof_C 	C 	0.36599	0.12476	0.64268	-0.189
Mof_H 	H 	0.3666	0.1588	0.6509	0.098
Mof_C 	C 	0.3285	0.09369	0.66194	0.159
Mof_C 	C 	0.33038	0.04177	0.65076	-0.166
Mof_H 	H 	0.3071	0.0198	0.6648	0.086
Mof_C 	C 	0.366	0.02335	0.61948	0.034
Mof_H 	H 	0.3659	0.9892	0.6117	0.045
Mof_C 	C 	0.29586	0.15643	0.72082	0.232
Mof_C 	C 	0.25955	0.19302	0.7206	-0.278
Mof_H 	H 	0.2313	0.1896	0.7007	0.13
Mof_C 	C 	0.0405	0.9881	0.8285	0.079
Mof_H 	H 	0.0699	0.9798	0.8119	0.016
Mof_N 	N 	0.0841	0.9732	0.9522	-0.13
Mof_C 	C 	0.0899	0.9781	0.9042	0.094
Mof_H 	H 	0.1209	0.9759	0.8884	0.002
Mof_C 	C 	0.0411	0.9876	0.8785	-0.126
Mof_O 	O 	0.9815	0.0177	0.9518	-0.185
Mof_C 	C 	0.1297	0.9482	0.9731	-0.025
Mof_H 	H 	0.1597	0.9656	0.9615	0.041
Mof_H 	H 	0.1312	0.9136	0.9615	0.038
Mof_C 	C 	0.047	0.9784	0.528	0.202
Mof_H 	H 	0.0755	0.998	0.5398	-0.028
Mof_H 	H 	0.0507	0.9441	0.5398	-0.023
Mof_C 	C 	0.4246	0.8665	0.4516	-0.067
Mof_H 	H 	0.4057	0.8914	0.4332	0.05
Mof_H 	H 	0.4568	0.8615	0.4354	0.05
Mof_C 	C 	0.3957	0.8174	0.4518	-0.031
Mof_H 	H 	0.4147	0.7928	0.433	0.035
Mof_H 	H 	0.3638	0.8227	0.4352	0.035
Mof_H 	H 	0.3721	0.9094	0.5285	0.038
Mof_H 	H 	0.3306	0.8387	0.4714	0.044
Mof_C 	C 	0.9525	0.979	0.5284	0.085
Mof_H 	H 	0.9483	0.9448	0.5403	-0.013
Mof_H 	H 	0.9244	0.999	0.5403	0.019
Mof_H 	H 	0.4883	0.8407	0.4715	0.046
Mof_H 	H 	0.4476	0.7682	0.5287	0.037
Mof_Cu	Cu	0.5	0.5	0.12818	0.91
Mof_Cu	Cu	0.5	0.5	0.22537	0.924
Mof_N 	N 	0.5	0.5	0.30301	-0.235
Mof_N 	N 	0.5	0.5	0.04735	-0.133
Mof_C 	C 	0.5	0.5	0.4045	0.588
Mof_Cu	Cu	4.07201e-33	5.25575e-33	0.37182	0.894
Mof_Cu	Cu	1.06665e-33	2.62788e-33	0.27463	0.907
Mof_N 	N 	7.65102e-34	2.62788e-33	0.19699	-0.253
Mof_N 	N 	7.01383e-33	0	0.45265	-0.167
Mof_C 	C 	3.70919e-34	0	0.0955	0.457
Mof_Cu	Cu	0.5	0.5	0.87182	0.91
Mof_Cu	Cu	0.5	0.5	0.77463	0.924
Mof_N 	N 	0.5	0.5	0.69699	-0.235
Mof_N 	N 	0.5	0.5	0.95265	-0.147
Mof_C 	C 	0.5	0.5	0.5955	0.588
Mof_Cu	Cu	7.69558e-33	0	0.62818	0.894
Mof_Cu	Cu	2.81731e-33	5.25575e-33	0.72537	0.907
Mof_N 	N 	1.36304e-32	0	0.80301	-0.252
Mof_N 	N 	2.12589e-33	5.25575e-33	0.54735	-0.167
Mof_C 	C 	3.51305e-33	0	0.9045	0.448
Mof_Cu	Cu	0.45596	0.97577	-0	0.914
Mof_N 	N 	0.3853	0.93346	-0	-0.14
Mof_N 	N 	0.2957	0.8852	-0	-0.096
Mof_C 	C 	0.3901	0.882	-0	-0.064
Mof_C 	C 	0.3398	0.8522	-0	-0.099
Mof_C 	C 	0.3393	0.9667	-0	-0.101
Mof_C 	C 	0.2874	0.9381	-0	-0.081
Mof_Cu	Cu	0.54404	0.02423	-0	0.898
Mof_N 	N 	0.6147	0.06654	-0	-0.144
Mof_N 	N 	0.7043	0.1148	-0	-0.095
Mof_C 	C 	0.6099	0.118	-0	-0.064
Mof_C 	C 	0.6602	0.1478	-0	-0.098
Mof_C 	C 	0.6607	0.0333	-0	-0.094
Mof_C 	C 	0.7126	0.0619	-0	-0.082
Mof_Cu	Cu	0.02423	0.45596	-0	0.898
Mof_N 	N 	0.06654	0.3853	-0	-0.144
Mof_N 	N 	0.1148	0.2957	-0	-0.096
Mof_C 	C 	0.118	0.3901	-0	-0.064
Mof_C 	C 	0.1478	0.3398	-0	-0.098
Mof_C 	C 	0.0333	0.3393	-0	-0.094
Mof_C 	C 	0.0619	0.2874	-0	-0.082
Mof_Cu	Cu	0.97577	0.54404	-0	0.914
Mof_N 	N 	0.93346	0.6147	-0	-0.14
Mof_N 	N 	0.8852	0.7043	-0	-0.095
Mof_C 	C 	0.882	0.6099	-0	-0.064
Mof_C 	C 	0.8522	0.6602	-0	-0.099
Mof_C 	C 	0.9667	0.6607	-0	-0.101
Mof_C 	C 	0.9381	0.7126	-0	-0.081
Mof_Cu	Cu	0.04404	0.47577	0.5	0.912
Mof_N 	N 	0.1147	0.43346	0.5	-0.139
Mof_N 	N 	0.2043	0.3852	0.5	-0.092
Mof_C 	C 	0.1099	0.382	0.5	-0.025
Mof_C 	C 	0.1602	0.3522	0.5	-0.059
Mof_C 	C 	0.1607	0.4667	0.5	-0.058
Mof_C 	C 	0.2126	0.4381	0.5	-0.044
Mof_Cu	Cu	0.95596	0.52423	0.5	0.917
Mof_N 	N 	0.8853	0.56654	0.5	-0.139
Mof_N 	N 	0.7957	0.6148	0.5	-0.092
Mof_C 	C 	0.8901	0.618	0.5	-0.026
Mof_C 	C 	0.8398	0.6478	0.5	-0.06
Mof_C 	C 	0.8393	0.5333	0.5	-0.059
Mof_C 	C 	0.7874	0.5619	0.5	-0.044
Mof_Cu	Cu	0.47577	0.95596	0.5	0.917
Mof_N 	N 	0.43346	0.8853	0.5	-0.139
Mof_N 	N 	0.3852	0.7957	0.5	-0.092
Mof_C 	C 	0.382	0.8901	0.5	-0.026
Mof_C 	C 	0.3522	0.8398	0.5	-0.06
Mof_C 	C 	0.4667	0.8393	0.5	-0.059
Mof_C 	C 	0.4381	0.7874	0.5	-0.044
Mof_Cu	Cu	0.52423	0.04404	0.5	0.912
Mof_N 	N 	0.56654	0.1147	0.5	-0.139
Mof_N 	N 	0.6148	0.2043	0.5	-0.092
Mof_C 	C 	0.618	0.1099	0.5	-0.025
Mof_C 	C 	0.6478	0.1602	0.5	-0.059
Mof_C 	C 	0.5333	0.1607	0.5	-0.057
Mof_C 	C 	0.5619	0.2126	0.5	-0.044
Mof_C 	C 	0.7353	0.7647	0.25	0.186
Mof_H 	H 	0.7601	0.7399	0.25	-0.037
Mof_C 	C 	0.66209	0.83791	0.25	-0.302
Mof_H 	H 	0.6372	0.8628	0.25	0.142
Mof_C 	C 	0.2647	0.2353	0.25	0.183
Mof_H 	H 	0.2399	0.2601	0.25	-0.038
Mof_C 	C 	0.33791	0.16209	0.25	-0.299
Mof_H 	H 	0.3628	0.1372	0.25	0.138
Mof_C 	C 	0.2353	0.7353	0.25	0.183
Mof_H 	H 	0.2601	0.7601	0.25	-0.036
Mof_C 	C 	0.16209	0.66209	0.25	-0.299
Mof_H 	H 	0.1372	0.6372	0.25	0.138
Mof_C 	C 	0.7647	0.2647	0.25	0.185
Mof_H 	H 	0.7399	0.2399	0.25	-0.039
Mof_C 	C 	0.83791	0.33791	0.25	-0.302
Mof_H 	H 	0.8628	0.3628	0.25	0.142
Mof_C 	C 	0.2647	0.2353	0.75	0.184
Mof_H 	H 	0.2399	0.2601	0.75	-0.038
Mof_C 	C 	0.33791	0.16209	0.75	-0.299
Mof_H 	H 	0.3628	0.1372	0.75	0.139
Mof_C 	C 	0.7353	0.7647	0.75	0.187
Mof_H 	H 	0.7601	0.7399	0.75	-0.036
Mof_C 	C 	0.66209	0.83791	0.75	-0.303
Mof_H 	H 	0.6372	0.8628	0.75	0.142
Mof_C 	C 	0.7647	0.2647	0.75	0.187
Mof_H 	H 	0.7399	0.2399	0.75	-0.038
Mof_C 	C 	0.83791	0.33791	0.75	-0.303
Mof_H 	H 	0.8628	0.3628	0.75	0.142
Mof_C 	C 	0.2353	0.7353	0.75	0.184
Mof_H 	H 	0.2601	0.7601	0.75	-0.036
Mof_C 	C 	0.16209	0.66209	0.75	-0.3
Mof_H 	H 	0.1372	0.6372	0.75	0.139
Mof_Pd	Pd	0.4876	0.53281	0.5	0.468
Mof_Pd	Pd	0.5124	0.46719	0.5	0.468
Mof_Pd	Pd	0.46719	0.4876	0.5	0.468
Mof_Pd	Pd	0.53281	0.5124	0.5	0.468
Mof_Pd	Pd	0.0124	0.03281	-0	0.395
Mof_Pd	Pd	0.9876	0.96719	-0	0.477
Mof_Pd	Pd	0.03281	0.9876	-0	0.487
Mof_Pd	Pd	0.96719	0.0124	-0	0.39
_end
