# CIF file generated by openbabel 2.4.1, see http://openbabel.sf.net
data_I
_chemical_name_common 'GIFKIP_clean'
_cell_length_a 7.122
_cell_length_b 7.613
_cell_length_c 9.628
_cell_angle_alpha 90
_cell_angle_beta 100.01
_cell_angle_gamma 90
_space_group_name_H-M_alt 'P 1'
_space_group_name_Hall 'P 1'
loop_
    _symmetry_equiv_pos_as_xyz
    x,y,z
loop_
    _atom_site_label
    _atom_site_type_symbol
    _atom_site_fract_x
    _atom_site_fract_y
    _atom_site_fract_z
    _atom_site_occupancy
    Cd1     Cd   0.00000   0.00000   0.00000   1.000
    Ni1     Ni   0.50000   0.50000   0.00000   1.000
    H1      H    0.98969   0.11544   0.71312   1.000
    H2      H    0.33003   0.88456   0.79833   1.000
    H3      H    0.20922   0.11544   0.54321   1.000
    H4      H    0.55597   0.88456   0.62766   1.000
    H5      H    0.01031   0.11544   0.28688   1.000
    H6      H    0.66997   0.88456   0.20167   1.000
    H7      H    0.79078   0.11544   0.45679   1.000
    H8      H    0.44403   0.88456   0.37234   1.000
    H9      H    0.01031   0.88456   0.28688   1.000
    H10     H    0.66997   0.11544   0.20167   1.000
    H11     H    0.79078   0.88456   0.45679   1.000
    H12     H    0.44403   0.11544   0.37234   1.000
    H13     H    0.98969   0.88456   0.71312   1.000
    H14     H    0.33003   0.11544   0.79833   1.000
    H15     H    0.20922   0.88456   0.54321   1.000
    H16     H    0.55597   0.11544   0.62766   1.000
    C1      C    0.66550   0.67190   0.95880   1.000
    C2      C    0.33450   0.67190   0.04120   1.000
    C3      C    0.33450   0.32810   0.04120   1.000
    C4      C    0.66550   0.32810   0.95880   1.000
    C5      C    0.25870   0.00000   0.74810   1.000
    C6      C    0.27890   0.00000   0.59400   1.000
    C7      C    0.48660   0.00000   0.57630   1.000
    C8      C    0.74130   0.00000   0.25190   1.000
    C9      C    0.72110   0.00000   0.40600   1.000
    C10     C    0.51340   0.00000   0.42370   1.000
    N1      N    0.77130   0.77900   0.93840   1.000
    N2      N    0.22870   0.77900   0.06160   1.000
    N3      N    0.22870   0.22100   0.06160   1.000
    N4      N    0.77130   0.22100   0.93840   1.000
    N5      N    0.05750   0.00000   0.77070   1.000
    N6      N    0.94250   0.00000   0.22930   1.000
