# CIF file generated by openbabel 2.4.1, see http://openbabel.sf.net
data_I
_chemical_name_common 'image0'
_cell_length_a 18.401
_cell_length_b 18.401
_cell_length_c 44.057
_cell_angle_alpha 90
_cell_angle_beta 90
_cell_angle_gamma 120
_space_group_name_H-M_alt 'P 1'
_space_group_name_Hall 'P 1'
loop_
    _symmetry_equiv_pos_as_xyz
    x,y,z
loop_
    _atom_site_label
    _atom_site_type_symbol
    _atom_site_fract_x
    _atom_site_fract_y
    _atom_site_fract_z
    _atom_site_occupancy
    O1      O    0.31710   0.51400   0.97343   1.000
    O2      O    0.14050   0.15410   0.88550   1.000
    O3      O    0.42540   0.63370   0.06670   1.000
    C1      C    0.25220   0.37090   0.93850   1.000
    H1      H    0.30870   0.39570   0.94360   1.000
    C2      C    0.21220   0.29680   0.92160   1.000
    H2      H    0.24250   0.27070   0.91620   1.000
    C3      C    0.44720   0.58840   0.05560   1.000
    C4      C    0.48260   0.54550   0.07553   1.000
    C5      C    0.49560   0.56690   0.10610   1.000
    H3      H    0.48240   0.60590   0.11390   1.000
    C6      C    0.52840   0.53000   0.12509   1.000
    H4      H    0.53710   0.54430   0.14550   1.000
    C7      C    0.25690   0.11860   0.78017   1.000
    C8      C    0.24900   0.13170   0.74960   1.000
    H5      H    0.19730   0.12040   0.74150   1.000
    C9      C    0.50230   0.49450   0.06389   1.000
    H6      H    0.49620   0.48460   0.04310   1.000
    O4      O    0.98377   0.84733   0.30676   1.000
    O5      O    0.80717   0.48743   0.21883   1.000
    O6      O    0.09207   0.96703   0.40003   1.000
    C10     C    0.91887   0.70423   0.27183   1.000
    H7      H    0.97537   0.72903   0.27693   1.000
    C11     C    0.87887   0.63013   0.25493   1.000
    H8      H    0.90917   0.60403   0.24953   1.000
    C12     C    0.11387   0.92173   0.38893   1.000
    C13     C    0.14927   0.87883   0.40886   1.000
    C14     C    0.16227   0.90023   0.43943   1.000
    H9      H    0.14907   0.93923   0.44723   1.000
    C15     C    0.19507   0.86333   0.45842   1.000
    H10     H    0.20377   0.87763   0.47883   1.000
    C16     C    0.92357   0.45193   0.11350   1.000
    C17     C    0.91567   0.46503   0.08293   1.000
    H11     H    0.86397   0.45373   0.07483   1.000
    C18     C    0.16897   0.82783   0.39722   1.000
    H12     H    0.16287   0.81793   0.37643   1.000
    O7      O    0.65043   0.18067   0.64010   1.000
    O8      O    0.47383   0.82077   0.55217   1.000
    O9      O    0.75873   0.30037   0.73337   1.000
    C19     C    0.58553   0.03757   0.60517   1.000
    H13     H    0.64203   0.06237   0.61027   1.000
    C20     C    0.54553   0.96347   0.58827   1.000
    H14     H    0.57583   0.93737   0.58287   1.000
    C21     C    0.78053   0.25507   0.72227   1.000
    C22     C    0.81593   0.21217   0.74220   1.000
    C23     C    0.82893   0.23357   0.77277   1.000
    H15     H    0.81573   0.27257   0.78057   1.000
    C24     C    0.86173   0.19667   0.79176   1.000
    H16     H    0.87043   0.21097   0.81217   1.000
    C25     C    0.59023   0.78527   0.44684   1.000
    C26     C    0.58233   0.79837   0.41627   1.000
    H17     H    0.53063   0.78707   0.40817   1.000
    C27     C    0.83563   0.16117   0.73056   1.000
    H18     H    0.82953   0.15127   0.70977   1.000
    O10     O    0.48600   0.80310   0.97343   1.000
    O11     O    0.84590   0.98640   0.88550   1.000
    O12     O    0.36630   0.79170   0.06670   1.000
    C28     C    0.62910   0.88130   0.93850   1.000
    H19     H    0.60430   0.91300   0.94360   1.000
    C29     C    0.70320   0.91540   0.92160   1.000
    H20     H    0.72930   0.97180   0.91620   1.000
    C30     C    0.41160   0.85880   0.05560   1.000
    C31     C    0.45450   0.93710   0.07553   1.000
    C32     C    0.43310   0.92870   0.10610   1.000
    H21     H    0.39410   0.87650   0.11390   1.000
    C33     C    0.47000   0.99840   0.12509   1.000
    H22     H    0.45570   0.99280   0.14550   1.000
    C34     C    0.88140   0.13830   0.78017   1.000
    C35     C    0.86830   0.11730   0.74960   1.000
    H23     H    0.87960   0.07690   0.74150   1.000
    C36     C    0.50550   0.00780   0.06389   1.000
    H24     H    0.51540   0.01160   0.04310   1.000
    O13     O    0.15267   0.13643   0.30676   1.000
    O14     O    0.51257   0.31973   0.21883   1.000
    O15     O    0.03297   0.12503   0.40003   1.000
    C37     C    0.29577   0.21463   0.27183   1.000
    H25     H    0.27097   0.24633   0.27693   1.000
    C38     C    0.36987   0.24873   0.25493   1.000
    H26     H    0.39597   0.30513   0.24953   1.000
    C39     C    0.07827   0.19213   0.38893   1.000
    C40     C    0.12117   0.27043   0.40886   1.000
    C41     C    0.09977   0.26203   0.43943   1.000
    H27     H    0.06077   0.20983   0.44723   1.000
    C42     C    0.13667   0.33173   0.45842   1.000
    H28     H    0.12237   0.32613   0.47883   1.000
    C43     C    0.54807   0.47163   0.11350   1.000
    C44     C    0.53497   0.45063   0.08293   1.000
    H29     H    0.54627   0.41023   0.07483   1.000
    C45     C    0.17217   0.34113   0.39722   1.000
    H30     H    0.18207   0.34493   0.37643   1.000
    O16     O    0.81933   0.46977   0.64010   1.000
    O17     O    0.17923   0.65307   0.55217   1.000
    O18     O    0.69963   0.45837   0.73337   1.000
    C46     C    0.96243   0.54797   0.60517   1.000
    H31     H    0.93763   0.57967   0.61027   1.000
    C47     C    0.03653   0.58207   0.58827   1.000
    H32     H    0.06263   0.63847   0.58287   1.000
    C48     C    0.74493   0.52547   0.72227   1.000
    C49     C    0.78783   0.60377   0.74220   1.000
    C50     C    0.76643   0.59537   0.77277   1.000
    H33     H    0.72743   0.54317   0.78057   1.000
    C51     C    0.80333   0.66507   0.79176   1.000
    H34     H    0.78903   0.65947   0.81217   1.000
    C52     C    0.21473   0.80497   0.44684   1.000
    C53     C    0.20163   0.78397   0.41627   1.000
    H35     H    0.21293   0.74357   0.40817   1.000
    C54     C    0.83883   0.67447   0.73056   1.000
    H36     H    0.84873   0.67827   0.70977   1.000
    O19     O    0.19690   0.68290   0.97343   1.000
    O20     O    0.01360   0.85950   0.88550   1.000
    O21     O    0.20830   0.57460   0.06670   1.000
    C55     C    0.11870   0.74780   0.93850   1.000
    H37     H    0.08700   0.69130   0.94360   1.000
    C56     C    0.08460   0.78780   0.92160   1.000
    H38     H    0.02820   0.75750   0.91620   1.000
    C57     C    0.14120   0.55280   0.05560   1.000
    C58     C    0.06290   0.51740   0.07553   1.000
    C59     C    0.07130   0.50440   0.10610   1.000
    H39     H    0.12350   0.51760   0.11390   1.000
    C60     C    0.00160   0.47160   0.12509   1.000
    H40     H    0.00720   0.46290   0.14550   1.000
    C61     C    0.86170   0.74310   0.78017   1.000
    C62     C    0.88270   0.75100   0.74960   1.000
    H41     H    0.92310   0.80270   0.74150   1.000
    C63     C    0.99220   0.49770   0.06389   1.000
    H42     H    0.98840   0.50380   0.04310   1.000
    O22     O    0.86357   0.01623   0.30676   1.000
    O23     O    0.68027   0.19283   0.21883   1.000
    O24     O    0.87497   0.90793   0.40003   1.000
    C64     C    0.78537   0.08113   0.27183   1.000
    H43     H    0.75367   0.02463   0.27693   1.000
    C65     C    0.75127   0.12113   0.25493   1.000
    H44     H    0.69487   0.09083   0.24953   1.000
    C66     C    0.80787   0.88613   0.38893   1.000
    C67     C    0.72957   0.85073   0.40886   1.000
    C68     C    0.73797   0.83773   0.43943   1.000
    H45     H    0.79017   0.85093   0.44723   1.000
    C69     C    0.66827   0.80493   0.45842   1.000
    H46     H    0.67387   0.79623   0.47883   1.000
    C70     C    0.52837   0.07643   0.11350   1.000
    C71     C    0.54937   0.08433   0.08293   1.000
    H47     H    0.58977   0.13603   0.07483   1.000
    C72     C    0.65887   0.83103   0.39722   1.000
    H48     H    0.65507   0.83713   0.37643   1.000
    O25     O    0.53023   0.34957   0.64010   1.000
    O26     O    0.34693   0.52617   0.55217   1.000
    O27     O    0.54163   0.24127   0.73337   1.000
    C73     C    0.45203   0.41447   0.60517   1.000
    H49     H    0.42033   0.35797   0.61027   1.000
    C74     C    0.41793   0.45447   0.58827   1.000
    H50     H    0.36153   0.42417   0.58287   1.000
    C75     C    0.47453   0.21947   0.72227   1.000
    C76     C    0.39623   0.18407   0.74220   1.000
    C77     C    0.40463   0.17107   0.77277   1.000
    H51     H    0.45683   0.18427   0.78057   1.000
    C78     C    0.33493   0.13827   0.79176   1.000
    H52     H    0.34053   0.12957   0.81217   1.000
    C79     C    0.19503   0.40977   0.44684   1.000
    C80     C    0.21603   0.41767   0.41627   1.000
    H53     H    0.25643   0.46937   0.40817   1.000
    C81     C    0.32553   0.16437   0.73056   1.000
    H54     H    0.32173   0.17047   0.70977   1.000
    O28     O    0.48600   0.68290   0.97343   1.000
    O29     O    0.84590   0.85950   0.88550   1.000
    O30     O    0.36630   0.57460   0.06670   1.000
    C82     C    0.62910   0.74780   0.93850   1.000
    H55     H    0.60430   0.69130   0.94360   1.000
    C83     C    0.70320   0.78780   0.92160   1.000
    H56     H    0.72930   0.75750   0.91620   1.000
    C84     C    0.41160   0.55280   0.05560   1.000
    C85     C    0.45450   0.51740   0.07553   1.000
    C86     C    0.43310   0.50440   0.10610   1.000
    H57     H    0.39410   0.51760   0.11390   1.000
    C87     C    0.47000   0.47160   0.12509   1.000
    H58     H    0.45570   0.46290   0.14550   1.000
    C88     C    0.88140   0.74310   0.78017   1.000
    C89     C    0.86830   0.75100   0.74960   1.000
    H59     H    0.87960   0.80270   0.74150   1.000
    C90     C    0.50550   0.49770   0.06389   1.000
    H60     H    0.51540   0.50380   0.04310   1.000
    O31     O    0.15267   0.01623   0.30676   1.000
    O32     O    0.51257   0.19283   0.21883   1.000
    O33     O    0.03297   0.90793   0.40003   1.000
    C91     C    0.29577   0.08113   0.27183   1.000
    H61     H    0.27097   0.02463   0.27693   1.000
    C92     C    0.36987   0.12113   0.25493   1.000
    H62     H    0.39597   0.09083   0.24953   1.000
    C93     C    0.07827   0.88613   0.38893   1.000
    C94     C    0.12117   0.85073   0.40886   1.000
    C95     C    0.09977   0.83773   0.43943   1.000
    H63     H    0.06077   0.85093   0.44723   1.000
    C96     C    0.13667   0.80493   0.45842   1.000
    H64     H    0.12237   0.79623   0.47883   1.000
    C97     C    0.54807   0.07643   0.11350   1.000
    C98     C    0.53497   0.08433   0.08293   1.000
    H65     H    0.54627   0.13603   0.07483   1.000
    C99     C    0.17217   0.83103   0.39722   1.000
    H66     H    0.18207   0.83713   0.37643   1.000
    O34     O    0.81933   0.34957   0.64010   1.000
    O35     O    0.17923   0.52617   0.55217   1.000
    O36     O    0.69963   0.24127   0.73337   1.000
    C100    C    0.96243   0.41447   0.60517   1.000
    H67     H    0.93763   0.35797   0.61027   1.000
    C101    C    0.03653   0.45447   0.58827   1.000
    H68     H    0.06263   0.42417   0.58287   1.000
    C102    C    0.74493   0.21947   0.72227   1.000
    C103    C    0.78783   0.18407   0.74220   1.000
    C104    C    0.76643   0.17107   0.77277   1.000
    H69     H    0.72743   0.18427   0.78057   1.000
    C105    C    0.80333   0.13827   0.79176   1.000
    H70     H    0.78903   0.12957   0.81217   1.000
    C106    C    0.21473   0.40977   0.44684   1.000
    C107    C    0.20163   0.41767   0.41627   1.000
    H71     H    0.21293   0.46937   0.40817   1.000
    C108    C    0.83883   0.16437   0.73056   1.000
    H72     H    0.84873   0.17047   0.70977   1.000
    O37     O    0.19690   0.51400   0.97343   1.000
    O38     O    0.01360   0.15410   0.88550   1.000
    O39     O    0.20830   0.63370   0.06670   1.000
    C109    C    0.11870   0.37090   0.93850   1.000
    H73     H    0.08700   0.39570   0.94360   1.000
    C110    C    0.08460   0.29680   0.92160   1.000
    H74     H    0.02820   0.27070   0.91620   1.000
    C111    C    0.14120   0.58840   0.05560   1.000
    C112    C    0.06290   0.54550   0.07553   1.000
    C113    C    0.07130   0.56690   0.10610   1.000
    H75     H    0.12350   0.60590   0.11390   1.000
    C114    C    0.00160   0.53000   0.12509   1.000
    H76     H    0.00720   0.54430   0.14550   1.000
    C115    C    0.86170   0.11860   0.78017   1.000
    C116    C    0.88270   0.13170   0.74960   1.000
    H77     H    0.92310   0.12040   0.74150   1.000
    C117    C    0.99220   0.49450   0.06389   1.000
    H78     H    0.98840   0.48460   0.04310   1.000
    O40     O    0.86357   0.84733   0.30676   1.000
    O41     O    0.68027   0.48743   0.21883   1.000
    O42     O    0.87497   0.96703   0.40003   1.000
    C118    C    0.78537   0.70423   0.27183   1.000
    H79     H    0.75367   0.72903   0.27693   1.000
    C119    C    0.75127   0.63013   0.25493   1.000
    H80     H    0.69487   0.60403   0.24953   1.000
    C120    C    0.80787   0.92173   0.38893   1.000
    C121    C    0.72957   0.87883   0.40886   1.000
    C122    C    0.73797   0.90023   0.43943   1.000
    H81     H    0.79017   0.93923   0.44723   1.000
    C123    C    0.66827   0.86333   0.45842   1.000
    H82     H    0.67387   0.87763   0.47883   1.000
    C124    C    0.52837   0.45193   0.11350   1.000
    C125    C    0.54937   0.46503   0.08293   1.000
    H83     H    0.58977   0.45373   0.07483   1.000
    C126    C    0.65887   0.82783   0.39722   1.000
    H84     H    0.65507   0.81793   0.37643   1.000
    O43     O    0.53023   0.18067   0.64010   1.000
    O44     O    0.34693   0.82077   0.55217   1.000
    O45     O    0.54163   0.30037   0.73337   1.000
    C127    C    0.45203   0.03757   0.60517   1.000
    H85     H    0.42033   0.06237   0.61027   1.000
    C128    C    0.41793   0.96347   0.58827   1.000
    H86     H    0.36153   0.93737   0.58287   1.000
    C129    C    0.47453   0.25507   0.72227   1.000
    C130    C    0.39623   0.21217   0.74220   1.000
    C131    C    0.40463   0.23357   0.77277   1.000
    H87     H    0.45683   0.27257   0.78057   1.000
    C132    C    0.33493   0.19667   0.79176   1.000
    H88     H    0.34053   0.21097   0.81217   1.000
    C133    C    0.19503   0.78527   0.44684   1.000
    C134    C    0.21603   0.79837   0.41627   1.000
    H89     H    0.25643   0.78707   0.40817   1.000
    C135    C    0.32553   0.16117   0.73056   1.000
    H90     H    0.32173   0.15127   0.70977   1.000
    O46     O    0.31710   0.80310   0.97343   1.000
    O47     O    0.14050   0.98640   0.88550   1.000
    O48     O    0.42540   0.79170   0.06670   1.000
    C136    C    0.25220   0.88130   0.93850   1.000
    H91     H    0.30870   0.91300   0.94360   1.000
    C137    C    0.21220   0.91540   0.92160   1.000
    H92     H    0.24250   0.97180   0.91620   1.000
    C138    C    0.44720   0.85880   0.05560   1.000
    C139    C    0.48260   0.93710   0.07553   1.000
    C140    C    0.49560   0.92870   0.10610   1.000
    H93     H    0.48240   0.87650   0.11390   1.000
    C141    C    0.52840   0.99840   0.12509   1.000
    H94     H    0.53710   0.99280   0.14550   1.000
    C142    C    0.25690   0.13830   0.78017   1.000
    C143    C    0.24900   0.11730   0.74960   1.000
    H95     H    0.19730   0.07690   0.74150   1.000
    C144    C    0.50230   0.00780   0.06389   1.000
    H96     H    0.49620   0.01160   0.04310   1.000
    O49     O    0.98377   0.13643   0.30676   1.000
    O50     O    0.80717   0.31973   0.21883   1.000
    O51     O    0.09207   0.12503   0.40003   1.000
    C145    C    0.91887   0.21463   0.27183   1.000
    H97     H    0.97537   0.24633   0.27693   1.000
    C146    C    0.87887   0.24873   0.25493   1.000
    H98     H    0.90917   0.30513   0.24953   1.000
    C147    C    0.11387   0.19213   0.38893   1.000
    C148    C    0.14927   0.27043   0.40886   1.000
    C149    C    0.16227   0.26203   0.43943   1.000
    H99     H    0.14907   0.20983   0.44723   1.000
    C150    C    0.19507   0.33173   0.45842   1.000
    H100    H    0.20377   0.32613   0.47883   1.000
    C151    C    0.92357   0.47163   0.11350   1.000
    C152    C    0.91567   0.45063   0.08293   1.000
    H101    H    0.86397   0.41023   0.07483   1.000
    C153    C    0.16897   0.34113   0.39722   1.000
    H102    H    0.16287   0.34493   0.37643   1.000
    O52     O    0.65043   0.46977   0.64010   1.000
    O53     O    0.47383   0.65307   0.55217   1.000
    O54     O    0.75873   0.45837   0.73337   1.000
    C154    C    0.58553   0.54797   0.60517   1.000
    H103    H    0.64203   0.57967   0.61027   1.000
    C155    C    0.54553   0.58207   0.58827   1.000
    H104    H    0.57583   0.63847   0.58287   1.000
    C156    C    0.78053   0.52547   0.72227   1.000
    C157    C    0.81593   0.60377   0.74220   1.000
    C158    C    0.82893   0.59537   0.77277   1.000
    H105    H    0.81573   0.54317   0.78057   1.000
    C159    C    0.86173   0.66507   0.79176   1.000
    H106    H    0.87043   0.65947   0.81217   1.000
    C160    C    0.59023   0.80497   0.44684   1.000
    C161    C    0.58233   0.78397   0.41627   1.000
    H107    H    0.53063   0.74357   0.40817   1.000
    C162    C    0.83563   0.67447   0.73056   1.000
    H108    H    0.82953   0.67827   0.70977   1.000
    Zn1     Zn   0.38975   0.61025   0.99952   1.000
    O55     O    0.43580   0.56420   0.02825   1.000
    Zn2     Zn   0.05642   0.94358   0.33285   1.000
    O56     O    0.10247   0.89753   0.36158   1.000
    Zn3     Zn   0.72308   0.27692   0.66619   1.000
    O57     O    0.76913   0.23087   0.69492   1.000
    Zn4     Zn   0.38975   0.77950   0.99952   1.000
    O58     O    0.43580   0.87160   0.02825   1.000
    Zn5     Zn   0.05642   0.11283   0.33285   1.000
    O59     O    0.10247   0.20493   0.36158   1.000
    Zn6     Zn   0.72308   0.44617   0.66619   1.000
    O60     O    0.76913   0.53827   0.69492   1.000
    Zn7     Zn   0.22050   0.61025   0.99952   1.000
    O61     O    0.12840   0.56420   0.02825   1.000
    Zn8     Zn   0.88717   0.94358   0.33285   1.000
    O62     O    0.79507   0.89753   0.36158   1.000
    Zn9     Zn   0.55383   0.27692   0.66619   1.000
    O63     O    0.46173   0.23087   0.69492   1.000
    Zn10    Zn   0.33333   0.66667   0.06086   1.000
    O64     O    0.33333   0.66667   0.01490   1.000
    Zn11    Zn   0.00000   0.00000   0.39419   1.000
    O65     O    0.00000   0.00000   0.34823   1.000
    Zn12    Zn   0.66667   0.33333   0.72753   1.000
    O66     O    0.66667   0.33333   0.68157   1.000
    Zn13    Zn   0.11572   0.05786   0.86264   1.000
    O67     O    0.11170   0.05585   0.78663   1.000
    O68     O    0.19230   0.09615   0.82808   1.000
    C163    C    0.17970   0.08985   0.80010   1.000
    Zn14    Zn   0.78239   0.39119   0.19597   1.000
    O69     O    0.77837   0.38918   0.11996   1.000
    O70     O    0.85897   0.42948   0.16141   1.000
    C164    C    0.84637   0.42318   0.13343   1.000
    Zn15    Zn   0.44905   0.72453   0.52931   1.000
    O71     O    0.44503   0.72252   0.45330   1.000
    O72     O    0.52563   0.76282   0.49475   1.000
    C165    C    0.51303   0.75652   0.46677   1.000
    Zn16    Zn   0.94214   0.05786   0.86264   1.000
    O73     O    0.94415   0.05585   0.78663   1.000
    O74     O    0.90385   0.09615   0.82808   1.000
    C166    C    0.91015   0.08985   0.80010   1.000
    Zn17    Zn   0.60881   0.39119   0.19597   1.000
    O75     O    0.61082   0.38918   0.11996   1.000
    O76     O    0.57052   0.42948   0.16141   1.000
    C167    C    0.57682   0.42318   0.13343   1.000
    Zn18    Zn   0.27547   0.72453   0.52931   1.000
    O77     O    0.27748   0.72252   0.45330   1.000
    O78     O    0.23718   0.76282   0.49475   1.000
    C168    C    0.24348   0.75652   0.46677   1.000
    Zn19    Zn   0.94214   0.88428   0.86264   1.000
    O79     O    0.94415   0.88830   0.78663   1.000
    O80     O    0.90385   0.80770   0.82808   1.000
    C169    C    0.91015   0.82030   0.80010   1.000
    Zn20    Zn   0.60881   0.21761   0.19597   1.000
    O81     O    0.61082   0.22163   0.11996   1.000
    O82     O    0.57052   0.14103   0.16141   1.000
    C170    C    0.57682   0.15363   0.13343   1.000
    Zn21    Zn   0.27547   0.55095   0.52931   1.000
    O83     O    0.27748   0.55497   0.45330   1.000
    O84     O    0.23718   0.47437   0.49475   1.000
    C171    C    0.24348   0.48697   0.46677   1.000
    Zn22    Zn   0.00000   0.00000   0.80456   1.000
    O85     O    0.00000   0.00000   0.84800   1.000
    Zn23    Zn   0.66667   0.33333   0.13789   1.000
    O86     O    0.66667   0.33333   0.18133   1.000
    Zn24    Zn   0.33333   0.66667   0.47123   1.000
    O87     O    0.33333   0.66667   0.51467   1.000
    C172    C    0.24145   0.48290   0.96640   1.000
    C173    C    0.20335   0.40670   0.94760   1.000
    C174    C    0.09075   0.18150   0.89380   1.000
    C175    C    0.13065   0.26130   0.91280   1.000
    C176    C    0.90812   0.81623   0.29973   1.000
    C177    C    0.87002   0.74003   0.28093   1.000
    C178    C    0.75742   0.51483   0.22713   1.000
    C179    C    0.79732   0.59463   0.24613   1.000
    C180    C    0.57478   0.14957   0.63307   1.000
    C181    C    0.53668   0.07337   0.61427   1.000
    C182    C    0.42408   0.84817   0.56047   1.000
    C183    C    0.46398   0.92797   0.57947   1.000
    C184    C    0.51710   0.75855   0.96640   1.000
    C185    C    0.59330   0.79665   0.94760   1.000
    C186    C    0.81850   0.90925   0.89380   1.000
    C187    C    0.73870   0.86935   0.91280   1.000
    C188    C    0.18377   0.09188   0.29973   1.000
    C189    C    0.25997   0.12998   0.28093   1.000
    C190    C    0.48517   0.24258   0.22713   1.000
    C191    C    0.40537   0.20268   0.24613   1.000
    C192    C    0.85043   0.42522   0.63307   1.000
    C193    C    0.92663   0.46332   0.61427   1.000
    C194    C    0.15183   0.57592   0.56047   1.000
    C195    C    0.07203   0.53602   0.57947   1.000
    C196    C    0.24145   0.75855   0.96640   1.000
    C197    C    0.20335   0.79665   0.94760   1.000
    C198    C    0.09075   0.90925   0.89380   1.000
    C199    C    0.13065   0.86935   0.91280   1.000
    C200    C    0.90812   0.09188   0.29973   1.000
    C201    C    0.87002   0.12998   0.28093   1.000
    C202    C    0.75742   0.24258   0.22713   1.000
    C203    C    0.79732   0.20268   0.24613   1.000
    C204    C    0.57478   0.42522   0.63307   1.000
    C205    C    0.53668   0.46332   0.61427   1.000
    C206    C    0.42408   0.57592   0.56047   1.000
    C207    C    0.46398   0.53602   0.57947   1.000
    O88     O    0.51400   0.31710   0.02657   1.000
    O89     O    0.15410   0.14050   0.11450   1.000
    O90     O    0.63370   0.42540   0.93330   1.000
    C208    C    0.37090   0.25220   0.06150   1.000
    H109    H    0.39570   0.30870   0.05640   1.000
    C209    C    0.29680   0.21220   0.07840   1.000
    H110    H    0.27070   0.24250   0.08380   1.000
    C210    C    0.58840   0.44720   0.94440   1.000
    C211    C    0.54550   0.48260   0.92447   1.000
    C212    C    0.56690   0.49560   0.89390   1.000
    H111    H    0.60590   0.48240   0.88610   1.000
    C213    C    0.53000   0.52840   0.87491   1.000
    H112    H    0.54430   0.53710   0.85450   1.000
    C214    C    0.11860   0.25690   0.21983   1.000
    C215    C    0.13170   0.24900   0.25040   1.000
    H113    H    0.12040   0.19730   0.25850   1.000
    C216    C    0.49450   0.50230   0.93611   1.000
    H114    H    0.48460   0.49620   0.95690   1.000
    O91     O    0.18067   0.65043   0.35990   1.000
    O92     O    0.82077   0.47383   0.44783   1.000
    O93     O    0.30037   0.75873   0.26663   1.000
    C217    C    0.03757   0.58553   0.39483   1.000
    H115    H    0.06237   0.64203   0.38973   1.000
    C218    C    0.96347   0.54553   0.41173   1.000
    H116    H    0.93737   0.57583   0.41713   1.000
    C219    C    0.25507   0.78053   0.27773   1.000
    C220    C    0.21217   0.81593   0.25780   1.000
    C221    C    0.23357   0.82893   0.22723   1.000
    H117    H    0.27257   0.81573   0.21943   1.000
    C222    C    0.19667   0.86173   0.20824   1.000
    H118    H    0.21097   0.87043   0.18783   1.000
    C223    C    0.78527   0.59023   0.55316   1.000
    C224    C    0.79837   0.58233   0.58373   1.000
    H119    H    0.78707   0.53063   0.59183   1.000
    C225    C    0.16117   0.83563   0.26944   1.000
    H120    H    0.15127   0.82953   0.29023   1.000
    O94     O    0.84733   0.98377   0.69324   1.000
    O95     O    0.48743   0.80717   0.78117   1.000
    O96     O    0.96703   0.09207   0.59997   1.000
    C226    C    0.70423   0.91887   0.72817   1.000
    H121    H    0.72903   0.97537   0.72307   1.000
    C227    C    0.63013   0.87887   0.74507   1.000
    H122    H    0.60403   0.90917   0.75047   1.000
    C228    C    0.92173   0.11387   0.61107   1.000
    C229    C    0.87883   0.14927   0.59114   1.000
    C230    C    0.90023   0.16227   0.56057   1.000
    H123    H    0.93923   0.14907   0.55277   1.000
    C231    C    0.86333   0.19507   0.54158   1.000
    H124    H    0.87763   0.20377   0.52117   1.000
    C232    C    0.45193   0.92357   0.88650   1.000
    C233    C    0.46503   0.91567   0.91707   1.000
    H125    H    0.45373   0.86397   0.92517   1.000
    C234    C    0.82783   0.16897   0.60278   1.000
    H126    H    0.81793   0.16287   0.62357   1.000
    O97     O    0.80310   0.48600   0.02657   1.000
    O98     O    0.98640   0.84590   0.11450   1.000
    O99     O    0.79170   0.36630   0.93330   1.000
    C235    C    0.88130   0.62910   0.06150   1.000
    H127    H    0.91300   0.60430   0.05640   1.000
    C236    C    0.91540   0.70320   0.07840   1.000
    H128    H    0.97180   0.72930   0.08380   1.000
    C237    C    0.85880   0.41160   0.94440   1.000
    C238    C    0.93710   0.45450   0.92447   1.000
    C239    C    0.92870   0.43310   0.89390   1.000
    H129    H    0.87650   0.39410   0.88610   1.000
    C240    C    0.99840   0.47000   0.87491   1.000
    H130    H    0.99280   0.45570   0.85450   1.000
    C241    C    0.13830   0.88140   0.21983   1.000
    C242    C    0.11730   0.86830   0.25040   1.000
    H131    H    0.07690   0.87960   0.25850   1.000
    C243    C    0.00780   0.50550   0.93611   1.000
    H132    H    0.01160   0.51540   0.95690   1.000
    O100    O    0.46977   0.81933   0.35990   1.000
    O101    O    0.65307   0.17923   0.44783   1.000
    O102    O    0.45837   0.69963   0.26663   1.000
    C244    C    0.54797   0.96243   0.39483   1.000
    H133    H    0.57967   0.93763   0.38973   1.000
    C245    C    0.58207   0.03653   0.41173   1.000
    H134    H    0.63847   0.06263   0.41713   1.000
    C246    C    0.52547   0.74493   0.27773   1.000
    C247    C    0.60377   0.78783   0.25780   1.000
    C248    C    0.59537   0.76643   0.22723   1.000
    H135    H    0.54317   0.72743   0.21943   1.000
    C249    C    0.66507   0.80333   0.20824   1.000
    H136    H    0.65947   0.78903   0.18783   1.000
    C250    C    0.80497   0.21473   0.55316   1.000
    C251    C    0.78397   0.20163   0.58373   1.000
    H137    H    0.74357   0.21293   0.59183   1.000
    C252    C    0.67447   0.83883   0.26944   1.000
    H138    H    0.67827   0.84873   0.29023   1.000
    O103    O    0.13643   0.15267   0.69324   1.000
    O104    O    0.31973   0.51257   0.78117   1.000
    O105    O    0.12503   0.03297   0.59997   1.000
    C253    C    0.21463   0.29577   0.72817   1.000
    H139    H    0.24633   0.27097   0.72307   1.000
    C254    C    0.24873   0.36987   0.74507   1.000
    H140    H    0.30513   0.39597   0.75047   1.000
    C255    C    0.19213   0.07827   0.61107   1.000
    C256    C    0.27043   0.12117   0.59114   1.000
    C257    C    0.26203   0.09977   0.56057   1.000
    H141    H    0.20983   0.06077   0.55277   1.000
    C258    C    0.33173   0.13667   0.54158   1.000
    H142    H    0.32613   0.12237   0.52117   1.000
    C259    C    0.47163   0.54807   0.88650   1.000
    C260    C    0.45063   0.53497   0.91707   1.000
    H143    H    0.41023   0.54627   0.92517   1.000
    C261    C    0.34113   0.17217   0.60278   1.000
    H144    H    0.34493   0.18207   0.62357   1.000
    O106    O    0.68290   0.19690   0.02657   1.000
    O107    O    0.85950   0.01360   0.11450   1.000
    O108    O    0.57460   0.20830   0.93330   1.000
    C262    C    0.74780   0.11870   0.06150   1.000
    H145    H    0.69130   0.08700   0.05640   1.000
    C263    C    0.78780   0.08460   0.07840   1.000
    H146    H    0.75750   0.02820   0.08380   1.000
    C264    C    0.55280   0.14120   0.94440   1.000
    C265    C    0.51740   0.06290   0.92447   1.000
    C266    C    0.50440   0.07130   0.89390   1.000
    H147    H    0.51760   0.12350   0.88610   1.000
    C267    C    0.47160   0.00160   0.87491   1.000
    H148    H    0.46290   0.00720   0.85450   1.000
    C268    C    0.74310   0.86170   0.21983   1.000
    C269    C    0.75100   0.88270   0.25040   1.000
    H149    H    0.80270   0.92310   0.25850   1.000
    C270    C    0.49770   0.99220   0.93611   1.000
    H150    H    0.50380   0.98840   0.95690   1.000
    O109    O    0.34957   0.53023   0.35990   1.000
    O110    O    0.52617   0.34693   0.44783   1.000
    O111    O    0.24127   0.54163   0.26663   1.000
    C271    C    0.41447   0.45203   0.39483   1.000
    H151    H    0.35797   0.42033   0.38973   1.000
    C272    C    0.45447   0.41793   0.41173   1.000
    H152    H    0.42417   0.36153   0.41713   1.000
    C273    C    0.21947   0.47453   0.27773   1.000
    C274    C    0.18407   0.39623   0.25780   1.000
    C275    C    0.17107   0.40463   0.22723   1.000
    H153    H    0.18427   0.45683   0.21943   1.000
    C276    C    0.13827   0.33493   0.20824   1.000
    H154    H    0.12957   0.34053   0.18783   1.000
    C277    C    0.40977   0.19503   0.55316   1.000
    C278    C    0.41767   0.21603   0.58373   1.000
    H155    H    0.46937   0.25643   0.59183   1.000
    C279    C    0.16437   0.32553   0.26944   1.000
    H156    H    0.17047   0.32173   0.29023   1.000
    O112    O    0.01623   0.86357   0.69324   1.000
    O113    O    0.19283   0.68027   0.78117   1.000
    O114    O    0.90793   0.87497   0.59997   1.000
    C280    C    0.08113   0.78537   0.72817   1.000
    H157    H    0.02463   0.75367   0.72307   1.000
    C281    C    0.12113   0.75127   0.74507   1.000
    H158    H    0.09083   0.69487   0.75047   1.000
    C282    C    0.88613   0.80787   0.61107   1.000
    C283    C    0.85073   0.72957   0.59114   1.000
    C284    C    0.83773   0.73797   0.56057   1.000
    H159    H    0.85093   0.79017   0.55277   1.000
    C285    C    0.80493   0.66827   0.54158   1.000
    H160    H    0.79623   0.67387   0.52117   1.000
    C286    C    0.07643   0.52837   0.88650   1.000
    C287    C    0.08433   0.54937   0.91707   1.000
    H161    H    0.13603   0.58977   0.92517   1.000
    C288    C    0.83103   0.65887   0.60278   1.000
    H162    H    0.83713   0.65507   0.62357   1.000
    O115    O    0.68290   0.48600   0.02657   1.000
    O116    O    0.85950   0.84590   0.11450   1.000
    O117    O    0.57460   0.36630   0.93330   1.000
    C289    C    0.74780   0.62910   0.06150   1.000
    H163    H    0.69130   0.60430   0.05640   1.000
    C290    C    0.78780   0.70320   0.07840   1.000
    H164    H    0.75750   0.72930   0.08380   1.000
    C291    C    0.55280   0.41160   0.94440   1.000
    C292    C    0.51740   0.45450   0.92447   1.000
    C293    C    0.50440   0.43310   0.89390   1.000
    H165    H    0.51760   0.39410   0.88610   1.000
    C294    C    0.47160   0.47000   0.87491   1.000
    H166    H    0.46290   0.45570   0.85450   1.000
    C295    C    0.74310   0.88140   0.21983   1.000
    C296    C    0.75100   0.86830   0.25040   1.000
    H167    H    0.80270   0.87960   0.25850   1.000
    C297    C    0.49770   0.50550   0.93611   1.000
    H168    H    0.50380   0.51540   0.95690   1.000
    O118    O    0.34957   0.81933   0.35990   1.000
    O119    O    0.52617   0.17923   0.44783   1.000
    O120    O    0.24127   0.69963   0.26663   1.000
    C298    C    0.41447   0.96243   0.39483   1.000
    H169    H    0.35797   0.93763   0.38973   1.000
    C299    C    0.45447   0.03653   0.41173   1.000
    H170    H    0.42417   0.06263   0.41713   1.000
    C300    C    0.21947   0.74493   0.27773   1.000
    C301    C    0.18407   0.78783   0.25780   1.000
    C302    C    0.17107   0.76643   0.22723   1.000
    H171    H    0.18427   0.72743   0.21943   1.000
    C303    C    0.13827   0.80333   0.20824   1.000
    H172    H    0.12957   0.78903   0.18783   1.000
    C304    C    0.40977   0.21473   0.55316   1.000
    C305    C    0.41767   0.20163   0.58373   1.000
    H173    H    0.46937   0.21293   0.59183   1.000
    C306    C    0.16437   0.83883   0.26944   1.000
    H174    H    0.17047   0.84873   0.29023   1.000
    O121    O    0.01623   0.15267   0.69324   1.000
    O122    O    0.19283   0.51257   0.78117   1.000
    O123    O    0.90793   0.03297   0.59997   1.000
    C307    C    0.08113   0.29577   0.72817   1.000
    H175    H    0.02463   0.27097   0.72307   1.000
    C308    C    0.12113   0.36987   0.74507   1.000
    H176    H    0.09083   0.39597   0.75047   1.000
    C309    C    0.88613   0.07827   0.61107   1.000
    C310    C    0.85073   0.12117   0.59114   1.000
    C311    C    0.83773   0.09977   0.56057   1.000
    H177    H    0.85093   0.06077   0.55277   1.000
    C312    C    0.80493   0.13667   0.54158   1.000
    H178    H    0.79623   0.12237   0.52117   1.000
    C313    C    0.07643   0.54807   0.88650   1.000
    C314    C    0.08433   0.53497   0.91707   1.000
    H179    H    0.13603   0.54627   0.92517   1.000
    C315    C    0.83103   0.17217   0.60278   1.000
    H180    H    0.83713   0.18207   0.62357   1.000
    O124    O    0.51400   0.19690   0.02657   1.000
    O125    O    0.15410   0.01360   0.11450   1.000
    O126    O    0.63370   0.20830   0.93330   1.000
    C316    C    0.37090   0.11870   0.06150   1.000
    H181    H    0.39570   0.08700   0.05640   1.000
    C317    C    0.29680   0.08460   0.07840   1.000
    H182    H    0.27070   0.02820   0.08380   1.000
    C318    C    0.58840   0.14120   0.94440   1.000
    C319    C    0.54550   0.06290   0.92447   1.000
    C320    C    0.56690   0.07130   0.89390   1.000
    H183    H    0.60590   0.12350   0.88610   1.000
    C321    C    0.53000   0.00160   0.87491   1.000
    H184    H    0.54430   0.00720   0.85450   1.000
    C322    C    0.11860   0.86170   0.21983   1.000
    C323    C    0.13170   0.88270   0.25040   1.000
    H185    H    0.12040   0.92310   0.25850   1.000
    C324    C    0.49450   0.99220   0.93611   1.000
    H186    H    0.48460   0.98840   0.95690   1.000
    O127    O    0.18067   0.53023   0.35990   1.000
    O128    O    0.82077   0.34693   0.44783   1.000
    O129    O    0.30037   0.54163   0.26663   1.000
    C325    C    0.03757   0.45203   0.39483   1.000
    H187    H    0.06237   0.42033   0.38973   1.000
    C326    C    0.96347   0.41793   0.41173   1.000
    H188    H    0.93737   0.36153   0.41713   1.000
    C327    C    0.25507   0.47453   0.27773   1.000
    C328    C    0.21217   0.39623   0.25780   1.000
    C329    C    0.23357   0.40463   0.22723   1.000
    H189    H    0.27257   0.45683   0.21943   1.000
    C330    C    0.19667   0.33493   0.20824   1.000
    H190    H    0.21097   0.34053   0.18783   1.000
    C331    C    0.78527   0.19503   0.55316   1.000
    C332    C    0.79837   0.21603   0.58373   1.000
    H191    H    0.78707   0.25643   0.59183   1.000
    C333    C    0.16117   0.32553   0.26944   1.000
    H192    H    0.15127   0.32173   0.29023   1.000
    O130    O    0.84733   0.86357   0.69324   1.000
    O131    O    0.48743   0.68027   0.78117   1.000
    O132    O    0.96703   0.87497   0.59997   1.000
    C334    C    0.70423   0.78537   0.72817   1.000
    H193    H    0.72903   0.75367   0.72307   1.000
    C335    C    0.63013   0.75127   0.74507   1.000
    H194    H    0.60403   0.69487   0.75047   1.000
    C336    C    0.92173   0.80787   0.61107   1.000
    C337    C    0.87883   0.72957   0.59114   1.000
    C338    C    0.90023   0.73797   0.56057   1.000
    H195    H    0.93923   0.79017   0.55277   1.000
    C339    C    0.86333   0.66827   0.54158   1.000
    H196    H    0.87763   0.67387   0.52117   1.000
    C340    C    0.45193   0.52837   0.88650   1.000
    C341    C    0.46503   0.54937   0.91707   1.000
    H197    H    0.45373   0.58977   0.92517   1.000
    C342    C    0.82783   0.65887   0.60278   1.000
    H198    H    0.81793   0.65507   0.62357   1.000
    O133    O    0.80310   0.31710   0.02657   1.000
    O134    O    0.98640   0.14050   0.11450   1.000
    O135    O    0.79170   0.42540   0.93330   1.000
    C343    C    0.88130   0.25220   0.06150   1.000
    H199    H    0.91300   0.30870   0.05640   1.000
    C344    C    0.91540   0.21220   0.07840   1.000
    H200    H    0.97180   0.24250   0.08380   1.000
    C345    C    0.85880   0.44720   0.94440   1.000
    C346    C    0.93710   0.48260   0.92447   1.000
    C347    C    0.92870   0.49560   0.89390   1.000
    H201    H    0.87650   0.48240   0.88610   1.000
    C348    C    0.99840   0.52840   0.87491   1.000
    H202    H    0.99280   0.53710   0.85450   1.000
    C349    C    0.13830   0.25690   0.21983   1.000
    C350    C    0.11730   0.24900   0.25040   1.000
    H203    H    0.07690   0.19730   0.25850   1.000
    C351    C    0.00780   0.50230   0.93611   1.000
    H204    H    0.01160   0.49620   0.95690   1.000
    O136    O    0.46977   0.65043   0.35990   1.000
    O137    O    0.65307   0.47383   0.44783   1.000
    O138    O    0.45837   0.75873   0.26663   1.000
    C352    C    0.54797   0.58553   0.39483   1.000
    H205    H    0.57967   0.64203   0.38973   1.000
    C353    C    0.58207   0.54553   0.41173   1.000
    H206    H    0.63847   0.57583   0.41713   1.000
    C354    C    0.52547   0.78053   0.27773   1.000
    C355    C    0.60377   0.81593   0.25780   1.000
    C356    C    0.59537   0.82893   0.22723   1.000
    H207    H    0.54317   0.81573   0.21943   1.000
    C357    C    0.66507   0.86173   0.20824   1.000
    H208    H    0.65947   0.87043   0.18783   1.000
    C358    C    0.80497   0.59023   0.55316   1.000
    C359    C    0.78397   0.58233   0.58373   1.000
    H209    H    0.74357   0.53063   0.59183   1.000
    C360    C    0.67447   0.83563   0.26944   1.000
    H210    H    0.67827   0.82953   0.29023   1.000
    O139    O    0.13643   0.98377   0.69324   1.000
    O140    O    0.31973   0.80717   0.78117   1.000
    O141    O    0.12503   0.09207   0.59997   1.000
    C361    C    0.21463   0.91887   0.72817   1.000
    H211    H    0.24633   0.97537   0.72307   1.000
    C362    C    0.24873   0.87887   0.74507   1.000
    H212    H    0.30513   0.90917   0.75047   1.000
    C363    C    0.19213   0.11387   0.61107   1.000
    C364    C    0.27043   0.14927   0.59114   1.000
    C365    C    0.26203   0.16227   0.56057   1.000
    H213    H    0.20983   0.14907   0.55277   1.000
    C366    C    0.33173   0.19507   0.54158   1.000
    H214    H    0.32613   0.20377   0.52117   1.000
    C367    C    0.47163   0.92357   0.88650   1.000
    C368    C    0.45063   0.91567   0.91707   1.000
    H215    H    0.41023   0.86397   0.92517   1.000
    C369    C    0.34113   0.16897   0.60278   1.000
    H216    H    0.34493   0.16287   0.62357   1.000
    Zn25    Zn   0.61025   0.38975   0.00048   1.000
    O142    O    0.56420   0.43580   0.97175   1.000
    Zn26    Zn   0.27692   0.72308   0.33381   1.000
    O143    O    0.23087   0.76913   0.30508   1.000
    Zn27    Zn   0.94358   0.05642   0.66715   1.000
    O144    O    0.89753   0.10247   0.63842   1.000
    Zn28    Zn   0.77950   0.38975   0.00048   1.000
    O145    O    0.87160   0.43580   0.97175   1.000
    Zn29    Zn   0.44617   0.72308   0.33381   1.000
    O146    O    0.53827   0.76913   0.30508   1.000
    Zn30    Zn   0.11283   0.05642   0.66715   1.000
    O147    O    0.20493   0.10247   0.63842   1.000
    Zn31    Zn   0.61025   0.22050   0.00048   1.000
    O148    O    0.56420   0.12840   0.97175   1.000
    Zn32    Zn   0.27692   0.55383   0.33381   1.000
    O149    O    0.23087   0.46173   0.30508   1.000
    Zn33    Zn   0.94358   0.88717   0.66715   1.000
    O150    O    0.89753   0.79507   0.63842   1.000
    Zn34    Zn   0.66667   0.33333   0.93914   1.000
    O151    O    0.66667   0.33333   0.98510   1.000
    Zn35    Zn   0.33333   0.66667   0.27247   1.000
    O152    O    0.33333   0.66667   0.31843   1.000
    Zn36    Zn   0.00000   0.00000   0.60581   1.000
    O153    O    0.00000   0.00000   0.65177   1.000
    Zn37    Zn   0.05786   0.11572   0.13736   1.000
    O154    O    0.05585   0.11170   0.21337   1.000
    O155    O    0.09615   0.19230   0.17192   1.000
    C370    C    0.08985   0.17970   0.19990   1.000
    Zn38    Zn   0.72453   0.44905   0.47069   1.000
    O156    O    0.72252   0.44503   0.54670   1.000
    O157    O    0.76282   0.52563   0.50525   1.000
    C371    C    0.75652   0.51303   0.53323   1.000
    Zn39    Zn   0.39119   0.78239   0.80403   1.000
    O158    O    0.38918   0.77837   0.88004   1.000
    O159    O    0.42948   0.85897   0.83859   1.000
    C372    C    0.42318   0.84637   0.86657   1.000
    Zn40    Zn   0.05786   0.94214   0.13736   1.000
    O160    O    0.05585   0.94415   0.21337   1.000
    O161    O    0.09615   0.90385   0.17192   1.000
    C373    C    0.08985   0.91015   0.19990   1.000
    Zn41    Zn   0.72453   0.27547   0.47069   1.000
    O162    O    0.72252   0.27748   0.54670   1.000
    O163    O    0.76282   0.23718   0.50525   1.000
    C374    C    0.75652   0.24348   0.53323   1.000
    Zn42    Zn   0.39119   0.60881   0.80403   1.000
    O164    O    0.38918   0.61082   0.88004   1.000
    O165    O    0.42948   0.57052   0.83859   1.000
    C375    C    0.42318   0.57682   0.86657   1.000
    Zn43    Zn   0.88428   0.94214   0.13736   1.000
    O166    O    0.88830   0.94415   0.21337   1.000
    O167    O    0.80770   0.90385   0.17192   1.000
    C376    C    0.82030   0.91015   0.19990   1.000
    Zn44    Zn   0.55095   0.27547   0.47069   1.000
    O168    O    0.55497   0.27748   0.54670   1.000
    O169    O    0.47437   0.23718   0.50525   1.000
    C377    C    0.48697   0.24348   0.53323   1.000
    Zn45    Zn   0.21761   0.60881   0.80403   1.000
    O170    O    0.22163   0.61082   0.88004   1.000
    O171    O    0.14103   0.57052   0.83859   1.000
    C378    C    0.15363   0.57682   0.86657   1.000
    Zn46    Zn   0.00000   0.00000   0.19544   1.000
    O172    O    0.00000   0.00000   0.15200   1.000
    Zn47    Zn   0.66667   0.33333   0.52877   1.000
    O173    O    0.66667   0.33333   0.48533   1.000
    Zn48    Zn   0.33333   0.66667   0.86211   1.000
    O174    O    0.33333   0.66667   0.81867   1.000
    C379    C    0.48290   0.24145   0.03360   1.000
    C380    C    0.40670   0.20335   0.05240   1.000
    C381    C    0.18150   0.09075   0.10620   1.000
    C382    C    0.26130   0.13065   0.08720   1.000
    C383    C    0.14957   0.57478   0.36693   1.000
    C384    C    0.07337   0.53668   0.38573   1.000
    C385    C    0.84817   0.42408   0.43953   1.000
    C386    C    0.92797   0.46398   0.42053   1.000
    C387    C    0.81623   0.90812   0.70027   1.000
    C388    C    0.74003   0.87002   0.71907   1.000
    C389    C    0.51483   0.75742   0.77287   1.000
    C390    C    0.59463   0.79732   0.75387   1.000
    C391    C    0.75855   0.51710   0.03360   1.000
    C392    C    0.79665   0.59330   0.05240   1.000
    C393    C    0.90925   0.81850   0.10620   1.000
    C394    C    0.86935   0.73870   0.08720   1.000
    C395    C    0.42522   0.85043   0.36693   1.000
    C396    C    0.46332   0.92663   0.38573   1.000
    C397    C    0.57592   0.15183   0.43953   1.000
    C398    C    0.53602   0.07203   0.42053   1.000
    C399    C    0.09188   0.18377   0.70027   1.000
    C400    C    0.12998   0.25997   0.71907   1.000
    C401    C    0.24258   0.48517   0.77287   1.000
    C402    C    0.20268   0.40537   0.75387   1.000
    C403    C    0.75855   0.24145   0.03360   1.000
    C404    C    0.79665   0.20335   0.05240   1.000
    C405    C    0.90925   0.09075   0.10620   1.000
    C406    C    0.86935   0.13065   0.08720   1.000
    C407    C    0.42522   0.57478   0.36693   1.000
    C408    C    0.46332   0.53668   0.38573   1.000
    C409    C    0.57592   0.42408   0.43953   1.000
    C410    C    0.53602   0.46398   0.42053   1.000
    C411    C    0.09188   0.90812   0.70027   1.000
    C412    C    0.12998   0.87002   0.71907   1.000
    C413    C    0.24258   0.75742   0.77287   1.000
    C414    C    0.20268   0.79732   0.75387   1.000
