data_functionalizedCrystal
_audit_creation_method	'EQeq! by Chris Wilmer'
_symmetry_space_group_name_H-M	'P1'
_symmetry_Int_Tables_number	1
_symmetry_cell_setting	triclinic
loop_
_symmetry_equiv_pos_as_xyz
  x,y,z
_cell_length_a	13.1489
_cell_length_b	13.1489
_cell_length_c	13.1489
_cell_angle_alpha	60
_cell_angle_beta	60
_cell_angle_gamma	60
loop_
_atom_site_label
_atom_site_type_symbol
_atom_site_fract_x
_atom_site_fract_y
_atom_site_fract_z
_atom_site_charge
Mof_Cd	Cd	0.5	0.5	0.5	0.383
Mof_Cd	Cd	-3.53612e-17	0	0.5	0.315
Mof_Cd	Cd	-3.53612e-17	0.5	-0	0.315
Mof_Cd	Cd	-7.07224e-17	0.5	0.5	0.334
Mof_Cd	Cd	0.125	0.625	0.625	0.346
Mof_Cd	Cd	0.875	0.375	0.375	0.429
Mof_H 	H 	0.4954	0.3474	0.8098	0.038
Mof_H 	H 	0.8474	0.9954	0.3474	0.049
Mof_H 	H 	0.3098	0.3474	0.9954	0.042
Mof_H 	H 	0.8474	0.8098	0.3474	0.044
Mof_H 	H 	0.4954	0.8098	0.3474	0.038
Mof_H 	H 	0.8474	0.3474	0.8098	0.044
Mof_H 	H 	0.3098	0.9954	0.3474	0.042
Mof_H 	H 	0.8474	0.3474	0.9954	0.049
Mof_H 	H 	0.4954	0.3474	0.3474	0.034
Mof_H 	H 	0.8474	0.8098	0.9954	0.053
Mof_H 	H 	0.3098	0.3474	0.3474	0.032
Mof_H 	H 	0.8474	0.9954	0.8098	0.053
Mof_H 	H 	0.1526	0.0046	0.1902	0.021
Mof_H 	H 	0.5046	0.6526	0.6526	0.037
Mof_H 	H 	0.1526	0.1902	0.0046	0.021
Mof_H 	H 	0.6902	0.6526	0.6526	0.041
Mof_H 	H 	0.6902	0.0046	0.6526	0.032
Mof_H 	H 	0.1526	0.6526	0.1902	0.03
Mof_H 	H 	0.5046	0.1902	0.6526	0.033
Mof_H 	H 	0.1526	0.6526	0.0046	0.025
Mof_H 	H 	0.1526	0.0046	0.6526	0.025
Mof_H 	H 	0.6902	0.6526	0.0046	0.032
Mof_H 	H 	0.1526	0.1902	0.6526	0.03
Mof_H 	H 	0.5046	0.6526	0.1902	0.033
Mof_C 	C 	0.4133	0.3877	0.8113	0.006
Mof_C 	C 	0.8877	0.9133	0.3877	0.014
Mof_C 	C 	0.3113	0.3877	0.9133	0.008
Mof_C 	C 	0.8877	0.8113	0.3877	0.013
Mof_C 	C 	0.4133	0.8113	0.3877	0.006
Mof_C 	C 	0.8877	0.3877	0.8113	0.013
Mof_C 	C 	0.3113	0.9133	0.3877	0.008
Mof_C 	C 	0.8877	0.3877	0.9133	0.014
Mof_C 	C 	0.4133	0.3877	0.3877	0.003
Mof_C 	C 	0.8877	0.8113	0.9133	0.017
Mof_C 	C 	0.3113	0.3877	0.3877	0.005
Mof_C 	C 	0.8877	0.9133	0.8113	0.017
Mof_C 	C 	0.1123	0.0867	0.1887	-0.005
Mof_C 	C 	0.5867	0.6123	0.6123	0.008
Mof_C 	C 	0.1123	0.1887	0.0867	-0.005
Mof_C 	C 	0.6887	0.6123	0.6123	0.006
Mof_C 	C 	0.6887	0.0867	0.6123	0.002
Mof_C 	C 	0.1123	0.6123	0.1887	-0.002
Mof_C 	C 	0.5867	0.1887	0.6123	0.006
Mof_C 	C 	0.1123	0.6123	0.0867	-0.003
Mof_C 	C 	0.1123	0.0867	0.6123	-0.003
Mof_C 	C 	0.6887	0.6123	0.0867	0.002
Mof_C 	C 	0.1123	0.1887	0.6123	-0.002
Mof_C 	C 	0.5867	0.6123	0.1887	0.006
Mof_N 	N 	0.3748	0.4578	0.7096	-0.099
Mof_N 	N 	0.9578	0.8748	0.4578	-0.077
Mof_N 	N 	0.2096	0.4578	0.8748	-0.096
Mof_N 	N 	0.9578	0.7096	0.4578	-0.083
Mof_N 	N 	0.3748	0.7096	0.4578	-0.099
Mof_N 	N 	0.9578	0.4578	0.7096	-0.083
Mof_N 	N 	0.2096	0.8748	0.4578	-0.096
Mof_N 	N 	0.9578	0.4578	0.8748	-0.077
Mof_N 	N 	0.3748	0.4578	0.4578	-0.1
Mof_N 	N 	0.9578	0.7096	0.8748	-0.076
Mof_N 	N 	0.2096	0.4578	0.4578	-0.103
Mof_N 	N 	0.9578	0.8748	0.7096	-0.076
Mof_N 	N 	0.0422	0.1252	0.2904	-0.109
Mof_N 	N 	0.6252	0.5422	0.5422	-0.1
Mof_N 	N 	0.0422	0.2904	0.1252	-0.109
Mof_N 	N 	0.7904	0.5422	0.5422	-0.087
Mof_N 	N 	0.7904	0.1252	0.5422	-0.09
Mof_N 	N 	0.0422	0.5422	0.2904	-0.106
Mof_N 	N 	0.6252	0.2904	0.5422	-0.1
Mof_N 	N 	0.0422	0.5422	0.1252	-0.108
Mof_N 	N 	0.0422	0.1252	0.5422	-0.108
Mof_N 	N 	0.7904	0.5422	0.1252	-0.09
Mof_N 	N 	0.0422	0.2904	0.5422	-0.106
Mof_N 	N 	0.6252	0.5422	0.2904	-0.1
Mof_N 	N 	0.2521	0.4979	0.7521	-0.074
Mof_N 	N 	0.9979	0.7521	0.4979	-0.054
Mof_N 	N 	0.2521	0.7521	0.4979	-0.074
Mof_N 	N 	0.9979	0.4979	0.7521	-0.054
Mof_N 	N 	0.2521	0.4979	0.4979	-0.076
Mof_N 	N 	0.9979	0.7521	0.7521	-0.053
Mof_N 	N 	0.0021	0.2479	0.2479	-0.089
Mof_N 	N 	0.7479	0.5021	0.5021	-0.068
Mof_N 	N 	0.7479	0.2479	0.5021	-0.069
Mof_N 	N 	0.0021	0.5021	0.2479	-0.088
Mof_N 	N 	0.0021	0.2479	0.5021	-0.088
Mof_N 	N 	0.7479	0.5021	0.2479	-0.069
_end
