# CIF file generated by openbabel 2.4.1, see http://openbabel.sf.net
data_I
_chemical_name_common 'image0'
_cell_length_a 21.6978
_cell_length_b 21.6978
_cell_length_c 7.4057
_cell_angle_alpha 90
_cell_angle_beta 90
_cell_angle_gamma 90
_space_group_name_H-M_alt 'P 1'
_space_group_name_Hall 'P 1'
loop_
    _symmetry_equiv_pos_as_xyz
    x,y,z
loop_
    _atom_site_label
    _atom_site_type_symbol
    _atom_site_fract_x
    _atom_site_fract_y
    _atom_site_fract_z
    _atom_site_occupancy
    Ba1     Ba   0.95725   0.46280   0.21367   1.000
    N1      N    0.81697   0.19326   0.45340   1.000
    C1      C    0.85107   0.20849   0.31120   1.000
    N2      N    0.90398   0.23818   0.33980   1.000
    C2      C    0.92450   0.25853   0.51560   1.000
    C3      C    0.94256   0.32663   0.51340   1.000
    O1      O    0.96619   0.34813   0.37170   1.000
    O2      O    0.93432   0.35532   0.65950   1.000
    C4      C    0.98030   0.22122   0.58260   1.000
    C5      C    0.98210   0.15120   0.56800   1.000
    S1      S    0.04813   0.10993   0.50360   1.000
    C6      C    0.03260   0.11240   0.27130   1.000
    C7      C    0.96690   0.15280   0.60500   1.000
    S2      S    0.03210   0.10900   0.66100   1.000
    C8      C    0.03650   0.13200   0.88790   1.000
    C9      C    0.95870   0.15540   0.61600   1.000
    S3      S    0.00620   0.10860   0.75040   1.000
    C10     C    0.95910   0.04440   0.78800   1.000
    N3      N    0.83557   0.19498   0.13460   1.000
    C11     C    0.87320   0.21810   0.98530   1.000
    C12     C    0.78340   0.15979   0.09380   1.000
    O3      O    0.77333   0.14408   0.93760   1.000
    C13     C    0.74418   0.14520   0.24750   1.000
    N4      N    0.69166   0.11603   0.20170   1.000
    O4      O    0.65552   0.10002   0.33120   1.000
    C14     C    0.76370   0.16220   0.42460   1.000
    N5      N    0.73105   0.14872   0.56790   1.000
    O5      O    0.93625   0.54798   0.93110   1.000
    O6      O    0.06933   0.52130   0.08270   1.000
    O7      O    0.01385   0.41948   0.88340   1.000
    H1      H    0.92780   0.24580   0.24620   1.000
    H2      H    0.89000   0.25290   0.60340   1.000
    H3      H    0.01690   0.23710   0.51780   1.000
    H4      H    0.98610   0.23150   0.71170   1.000
    H5      H    0.01460   0.22630   0.49580   1.000
    H6      H    0.99400   0.23810   0.70010   1.000
    H7      H    0.01340   0.22160   0.49070   1.000
    H8      H    0.99670   0.23940   0.69550   1.000
    H9      H    0.94920   0.13950   0.48180   1.000
    H10     H    0.96960   0.13490   0.68710   1.000
    H11     H    0.06500   0.09030   0.20570   1.000
    H12     H    0.03150   0.15540   0.23100   1.000
    H13     H    0.99260   0.09290   0.24750   1.000
    H14     H    0.99440   0.13550   0.25040   1.000
    H15     H    0.02790   0.07030   0.22520   1.000
    H16     H    0.06670   0.13280   0.20860   1.000
    H17     H    0.94930   0.13680   0.49070   1.000
    H18     H    0.93550   0.14740   0.70040   1.000
    H19     H    0.06960   0.10920   0.94830   1.000
    H20     H    0.99720   0.12340   0.94810   1.000
    H21     H    0.04520   0.17630   0.89400   1.000
    H22     H    0.00510   0.16340   0.91190   1.000
    H23     H    0.07750   0.14920   0.91220   1.000
    H24     H    0.02950   0.09630   0.96630   1.000
    H25     H    0.95350   0.13490   0.49790   1.000
    H26     H    0.91760   0.15720   0.67390   1.000
    H27     H    0.98090   0.01470   0.86470   1.000
    H28     H    0.94900   0.02500   0.67220   1.000
    H29     H    0.92110   0.05750   0.84820   1.000
    H30     H    0.91980   0.05010   0.72540   1.000
    H31     H    0.95170   0.03980   0.91790   1.000
    H32     H    0.97960   0.00730   0.74190   1.000
    H33     H    0.88020   0.26240   0.00090   1.000
    H34     H    0.85180   0.21080   0.87080   1.000
    H35     H    0.91290   0.19650   0.98420   1.000
    H36     H    0.74410   0.15980   0.67560   1.000
    H37     H    0.69610   0.12860   0.55650   1.000
    H38     H    0.90160   0.53410   0.90100   1.000
    H39     H    0.92720   0.58180   0.97960   1.000
    H40     H    0.07290   0.55850   0.11280   1.000
    H41     H    0.10410   0.50460   0.07140   1.000
    H42     H    0.04190   0.39830   0.93080   1.000
    H43     H    0.99280   0.39710   0.81440   1.000
    Ba2     Ba   0.04275   0.53720   0.71367   1.000
    N6      N    0.18303   0.80674   0.95340   1.000
    C15     C    0.14893   0.79151   0.81120   1.000
    N7      N    0.09602   0.76182   0.83980   1.000
    C16     C    0.07550   0.74147   0.01560   1.000
    C17     C    0.05744   0.67337   0.01340   1.000
    O8      O    0.03381   0.65187   0.87170   1.000
    O9      O    0.06568   0.64468   0.15950   1.000
    C18     C    0.01970   0.77878   0.08260   1.000
    C19     C    0.01790   0.84880   0.06800   1.000
    S4      S    0.95187   0.89007   0.00360   1.000
    C20     C    0.96740   0.88760   0.77130   1.000
    C21     C    0.03310   0.84720   0.10500   1.000
    S5      S    0.96790   0.89100   0.16100   1.000
    C22     C    0.96350   0.86800   0.38790   1.000
    C23     C    0.04130   0.84460   0.11600   1.000
    S6      S    0.99380   0.89140   0.25040   1.000
    C24     C    0.04090   0.95560   0.28800   1.000
    N8      N    0.16443   0.80502   0.63460   1.000
    C25     C    0.12680   0.78190   0.48530   1.000
    C26     C    0.21660   0.84021   0.59380   1.000
    O10     O    0.22667   0.85592   0.43760   1.000
    C27     C    0.25582   0.85480   0.74750   1.000
    N9      N    0.30834   0.88397   0.70170   1.000
    O11     O    0.34448   0.89998   0.83120   1.000
    C28     C    0.23630   0.83780   0.92460   1.000
    N10     N    0.26895   0.85128   0.06790   1.000
    O12     O    0.06375   0.45202   0.43110   1.000
    O13     O    0.93067   0.47870   0.58270   1.000
    O14     O    0.98615   0.58052   0.38340   1.000
    H44     H    0.07220   0.75420   0.74620   1.000
    H45     H    0.11000   0.74710   0.10340   1.000
    H46     H    0.98310   0.76290   0.01780   1.000
    H47     H    0.01390   0.76850   0.21170   1.000
    H48     H    0.98540   0.77370   0.99580   1.000
    H49     H    0.00600   0.76190   0.20010   1.000
    H50     H    0.98660   0.77840   0.99070   1.000
    H51     H    0.00330   0.76060   0.19550   1.000
    H52     H    0.05080   0.86050   0.98180   1.000
    H53     H    0.03040   0.86510   0.18710   1.000
    H54     H    0.93500   0.90970   0.70570   1.000
    H55     H    0.96850   0.84460   0.73100   1.000
    H56     H    0.00740   0.90710   0.74750   1.000
    H57     H    0.00560   0.86450   0.75040   1.000
    H58     H    0.97210   0.92970   0.72520   1.000
    H59     H    0.93330   0.86720   0.70860   1.000
    H60     H    0.05070   0.86320   0.99070   1.000
    H61     H    0.06450   0.85260   0.20040   1.000
    H62     H    0.93040   0.89080   0.44830   1.000
    H63     H    0.00280   0.87660   0.44810   1.000
    H64     H    0.95480   0.82370   0.39400   1.000
    H65     H    0.99490   0.83660   0.41190   1.000
    H66     H    0.92250   0.85080   0.41220   1.000
    H67     H    0.97050   0.90370   0.46630   1.000
    H68     H    0.04650   0.86510   0.99790   1.000
    H69     H    0.08240   0.84280   0.17390   1.000
    H70     H    0.01910   0.98530   0.36470   1.000
    H71     H    0.05100   0.97500   0.17220   1.000
    H72     H    0.07890   0.94250   0.34820   1.000
    H73     H    0.08020   0.94990   0.22540   1.000
    H74     H    0.04830   0.96020   0.41790   1.000
    H75     H    0.02040   0.99270   0.24190   1.000
    H76     H    0.11980   0.73760   0.50090   1.000
    H77     H    0.14820   0.78920   0.37080   1.000
    H78     H    0.08710   0.80350   0.48420   1.000
    H79     H    0.25590   0.84020   0.17560   1.000
    H80     H    0.30390   0.87140   0.05650   1.000
    H81     H    0.09840   0.46590   0.40100   1.000
    H82     H    0.07280   0.41820   0.47960   1.000
    H83     H    0.92710   0.44150   0.61280   1.000
    H84     H    0.89590   0.49540   0.57140   1.000
    H85     H    0.95810   0.60170   0.43080   1.000
    H86     H    0.00720   0.60290   0.31440   1.000
    Ba3     Ba   0.53720   0.95725   0.96367   1.000
    N11     N    0.80674   0.81697   0.20340   1.000
    C29     C    0.79151   0.85107   0.06120   1.000
    N12     N    0.76182   0.90398   0.08980   1.000
    C30     C    0.74147   0.92450   0.26560   1.000
    C31     C    0.67337   0.94256   0.26340   1.000
    O15     O    0.65187   0.96619   0.12170   1.000
    O16     O    0.64468   0.93432   0.40950   1.000
    C32     C    0.77878   0.98030   0.33260   1.000
    C33     C    0.84880   0.98210   0.31800   1.000
    S7      S    0.89007   0.04813   0.25360   1.000
    C34     C    0.88760   0.03260   0.02130   1.000
    C35     C    0.84720   0.96690   0.35500   1.000
    S8      S    0.89100   0.03210   0.41100   1.000
    C36     C    0.86800   0.03650   0.63790   1.000
    C37     C    0.84460   0.95870   0.36600   1.000
    S9      S    0.89140   0.00620   0.50040   1.000
    C38     C    0.95560   0.95910   0.53800   1.000
    N13     N    0.80502   0.83557   0.88460   1.000
    C39     C    0.78190   0.87320   0.73530   1.000
    C40     C    0.84021   0.78340   0.84380   1.000
    O17     O    0.85592   0.77333   0.68760   1.000
    C41     C    0.85480   0.74418   0.99750   1.000
    N14     N    0.88397   0.69166   0.95170   1.000
    O18     O    0.89998   0.65552   0.08120   1.000
    C42     C    0.83780   0.76370   0.17460   1.000
    N15     N    0.85128   0.73105   0.31790   1.000
    O19     O    0.45202   0.93625   0.68110   1.000
    O20     O    0.47870   0.06933   0.83270   1.000
    O21     O    0.58052   0.01385   0.63340   1.000
    H87     H    0.75420   0.92780   0.99620   1.000
    H88     H    0.74710   0.89000   0.35340   1.000
    H89     H    0.76290   0.01690   0.26780   1.000
    H90     H    0.76850   0.98610   0.46170   1.000
    H91     H    0.77370   0.01460   0.24580   1.000
    H92     H    0.76190   0.99400   0.45010   1.000
    H93     H    0.77840   0.01340   0.24070   1.000
    H94     H    0.76060   0.99670   0.44550   1.000
    H95     H    0.86050   0.94920   0.23180   1.000
    H96     H    0.86510   0.96960   0.43710   1.000
    H97     H    0.90970   0.06500   0.95570   1.000
    H98     H    0.84460   0.03150   0.98100   1.000
    H99     H    0.90710   0.99260   0.99750   1.000
    H100    H    0.86450   0.99440   0.00040   1.000
    H101    H    0.92970   0.02790   0.97520   1.000
    H102    H    0.86720   0.06670   0.95860   1.000
    H103    H    0.86320   0.94930   0.24070   1.000
    H104    H    0.85260   0.93550   0.45040   1.000
    H105    H    0.89080   0.06960   0.69830   1.000
    H106    H    0.87660   0.99720   0.69810   1.000
    H107    H    0.82370   0.04520   0.64400   1.000
    H108    H    0.83660   0.00510   0.66190   1.000
    H109    H    0.85080   0.07750   0.66220   1.000
    H110    H    0.90370   0.02950   0.71630   1.000
    H111    H    0.86510   0.95350   0.24790   1.000
    H112    H    0.84280   0.91760   0.42390   1.000
    H113    H    0.98530   0.98090   0.61470   1.000
    H114    H    0.97500   0.94900   0.42220   1.000
    H115    H    0.94250   0.92110   0.59820   1.000
    H116    H    0.94990   0.91980   0.47540   1.000
    H117    H    0.96020   0.95170   0.66790   1.000
    H118    H    0.99270   0.97960   0.49190   1.000
    H119    H    0.73760   0.88020   0.75090   1.000
    H120    H    0.78920   0.85180   0.62080   1.000
    H121    H    0.80350   0.91290   0.73420   1.000
    H122    H    0.84020   0.74410   0.42560   1.000
    H123    H    0.87140   0.69610   0.30650   1.000
    H124    H    0.46590   0.90160   0.65100   1.000
    H125    H    0.41820   0.92720   0.72960   1.000
    H126    H    0.44150   0.07290   0.86280   1.000
    H127    H    0.49540   0.10410   0.82140   1.000
    H128    H    0.60170   0.04190   0.68080   1.000
    H129    H    0.60290   0.99280   0.56440   1.000
    Ba4     Ba   0.46280   0.04275   0.46367   1.000
    N16     N    0.19326   0.18303   0.70340   1.000
    C43     C    0.20849   0.14893   0.56120   1.000
    N17     N    0.23818   0.09602   0.58980   1.000
    C44     C    0.25853   0.07550   0.76560   1.000
    C45     C    0.32663   0.05744   0.76340   1.000
    O22     O    0.34813   0.03381   0.62170   1.000
    O23     O    0.35532   0.06568   0.90950   1.000
    C46     C    0.22122   0.01970   0.83260   1.000
    C47     C    0.15120   0.01790   0.81800   1.000
    S10     S    0.10993   0.95187   0.75360   1.000
    C48     C    0.11240   0.96740   0.52130   1.000
    C49     C    0.15280   0.03310   0.85500   1.000
    S11     S    0.10900   0.96790   0.91100   1.000
    C50     C    0.13200   0.96350   0.13790   1.000
    C51     C    0.15540   0.04130   0.86600   1.000
    S12     S    0.10860   0.99380   0.00040   1.000
    C52     C    0.04440   0.04090   0.03800   1.000
    N18     N    0.19498   0.16443   0.38460   1.000
    C53     C    0.21810   0.12680   0.23530   1.000
    C54     C    0.15979   0.21660   0.34380   1.000
    O24     O    0.14408   0.22667   0.18760   1.000
    C55     C    0.14520   0.25582   0.49750   1.000
    N19     N    0.11603   0.30834   0.45170   1.000
    O25     O    0.10002   0.34448   0.58120   1.000
    C56     C    0.16220   0.23630   0.67460   1.000
    N20     N    0.14872   0.26895   0.81790   1.000
    O26     O    0.54798   0.06375   0.18110   1.000
    O27     O    0.52130   0.93067   0.33270   1.000
    O28     O    0.41948   0.98615   0.13340   1.000
    H130    H    0.24580   0.07220   0.49620   1.000
    H131    H    0.25290   0.11000   0.85340   1.000
    H132    H    0.23710   0.98310   0.76780   1.000
    H133    H    0.23150   0.01390   0.96170   1.000
    H134    H    0.22630   0.98540   0.74580   1.000
    H135    H    0.23810   0.00600   0.95010   1.000
    H136    H    0.22160   0.98660   0.74070   1.000
    H137    H    0.23940   0.00330   0.94550   1.000
    H138    H    0.13950   0.05080   0.73180   1.000
    H139    H    0.13490   0.03040   0.93710   1.000
    H140    H    0.09030   0.93500   0.45570   1.000
    H141    H    0.15540   0.96850   0.48100   1.000
    H142    H    0.09290   0.00740   0.49750   1.000
    H143    H    0.13550   0.00560   0.50040   1.000
    H144    H    0.07030   0.97210   0.47520   1.000
    H145    H    0.13280   0.93330   0.45860   1.000
    H146    H    0.13680   0.05070   0.74070   1.000
    H147    H    0.14740   0.06450   0.95040   1.000
    H148    H    0.10920   0.93040   0.19830   1.000
    H149    H    0.12340   0.00280   0.19810   1.000
    H150    H    0.17630   0.95480   0.14400   1.000
    H151    H    0.16340   0.99490   0.16190   1.000
    H152    H    0.14920   0.92250   0.16220   1.000
    H153    H    0.09630   0.97050   0.21630   1.000
    H154    H    0.13490   0.04650   0.74790   1.000
    H155    H    0.15720   0.08240   0.92390   1.000
    H156    H    0.01470   0.01910   0.11470   1.000
    H157    H    0.02500   0.05100   0.92220   1.000
    H158    H    0.05750   0.07890   0.09820   1.000
    H159    H    0.05010   0.08020   0.97540   1.000
    H160    H    0.03980   0.04830   0.16790   1.000
    H161    H    0.00730   0.02040   0.99190   1.000
    H162    H    0.26240   0.11980   0.25090   1.000
    H163    H    0.21080   0.14820   0.12080   1.000
    H164    H    0.19650   0.08710   0.23420   1.000
    H165    H    0.15980   0.25590   0.92560   1.000
    H166    H    0.12860   0.30390   0.80650   1.000
    H167    H    0.53410   0.09840   0.15100   1.000
    H168    H    0.58180   0.07280   0.22960   1.000
    H169    H    0.55850   0.92710   0.36280   1.000
    H170    H    0.50460   0.89590   0.32140   1.000
    H171    H    0.39830   0.95810   0.18080   1.000
    H172    H    0.39710   0.00720   0.06440   1.000
