data_functionalizedCrystal
_audit_creation_method	'EQeq! by Chris Wilmer'
_symmetry_space_group_name_H-M	'P1'
_symmetry_Int_Tables_number	1
_symmetry_cell_setting	triclinic
loop_
_symmetry_equiv_pos_as_xyz
  x,y,z
_cell_length_a	34.2293
_cell_length_b	34.2289
_cell_length_c	34.2289
_cell_angle_alpha	109.471
_cell_angle_beta	109.471
_cell_angle_gamma	109.471
loop_
_atom_site_label
_atom_site_type_symbol
_atom_site_fract_x
_atom_site_fract_y
_atom_site_fract_z
_atom_site_charge
Mof_Dy	Dy	0.55124	0.55124	-0	1.544
Mof_Dy	Dy	0.62462	0.62462	0.62462	1.226
Mof_Dy	Dy	-2.94601e-17	0.4993	-0	2.698
Mof_Dy	Dy	-1.47301e-17	0.37538	-0	1.004
Mof_Dy	Dy	2.94601e-17	0.62462	-0	1.494
Mof_Dy	Dy	7.36503e-17	0	0.62462	1.494
Mof_Dy	Dy	0.4993	0	-0	2.699
Mof_Dy	Dy	3.68252e-17	0	0.37538	1.005
Mof_Dy	Dy	0.5007	0.5007	0.5007	3.046
Mof_Dy	Dy	1.47301e-17	0	0.4993	2.699
Mof_Dy	Dy	0.37538	0	-0	1.005
Mof_Dy	Dy	0.37538	0.37538	0.37538	1.657
Mof_Dy	Dy	2.94601e-17	0.55124	0.55124	1.544
Mof_Dy	Dy	0.55124	-5.89203e-17	0.55124	1.545
Mof_Dy	Dy	2.94601e-17	0.44876	0.44876	1.521
Mof_Dy	Dy	0.44876	-2.94601e-17	0.44876	1.521
Mof_Dy	Dy	0.44876	0.44876	-0	1.521
Mof_Dy	Dy	0.62462	0	-0	1.496
Mof_H 	H 	0.4023	0.0375	0.8074	0.221
Mof_H 	H 	0.704	0.3007	0.2877	0.066
Mof_H 	H 	0.3883	0.4048	0.7497	0.06
Mof_H 	H 	0.7104	0.719	0.4796	0.058
Mof_H 	H 	0.4023	0.8074	0.0375	0.221
Mof_H 	H 	0.9865	0.5404	0.3711	0.24
Mof_H 	H 	0.9829	0.5309	0.1082	0.473
Mof_H 	H 	0.4731	0.1503	0.188	0.04
Mof_H 	H 	0.5269	0.7149	0.6772	0.055
Mof_H 	H 	0.1082	0.5309	0.9829	0.473
Mof_H 	H 	0.8307	0.4596	0.4461	0.009
Mof_H 	H 	0.3228	0.8497	0.0377	-0.003
Mof_H 	H 	0.6117	0.3614	0.0165	-0.143
Mof_H 	H 	0.7944	0.7836	0.462	0.043
Mof_H 	H 	0.0377	0.8497	0.3228	-0.003
Mof_H 	H 	0.8209	0.8007	0.3628	0.04
Mof_H 	H 	0.6154	0.1693	0.6289	0.002
Mof_H 	H 	0.6993	0.4033	0.987	0.223
Mof_H 	H 	0.038	0.9168	0.3722	0.041
Mof_H 	H 	0.1258	0.5773	0.1629	-0.017
Mof_H 	H 	0.1791	0.5419	0.9798	0.548
Mof_H 	H 	0.013	0.7123	0.4163	-0.056
Mof_H 	H 	0.1993	0.0202	0.5621	-0.468
Mof_H 	H 	0.5952	0.9835	0.3449	0.258
Mof_H 	H 	0.9629	0.4144	0.8371	0.083
Mof_H 	H 	0.462	0.7944	0.7836	0.043
Mof_H 	H 	0.7836	0.462	0.7944	0.043
Mof_H 	H 	0.6352	0.4051	0.5977	0.079
Mof_H 	H 	0.132	0.9855	0.6539	0.133
Mof_H 	H 	0.8307	0.4461	0.4596	0.009
Mof_H 	H 	0.4033	0.987	0.6993	0.223
Mof_H 	H 	0.7484	0.7484	0.3424	0.105
Mof_H 	H 	0.5446	0.6658	0.6278	-0.039
Mof_H 	H 	0.6726	0.4589	0.9815	0.26
Mof_H 	H 	0.0145	0.6684	0.1465	-0.15
Mof_H 	H 	0.0375	0.4023	0.8074	0.221
Mof_H 	H 	0.5485	0.4227	0.5856	0.005
Mof_H 	H 	0.0215	0.6361	0.5034	-0.224
Mof_H 	H 	0.0185	0.4774	0.6911	-0.187
Mof_H 	H 	0.8673	0.3854	0.3639	-0.007
Mof_H 	H 	0.1503	0.4731	0.188	0.04
Mof_H 	H 	0.0171	0.548	0.1253	-0.436
Mof_H 	H 	0.6993	0.987	0.4033	0.223
Mof_H 	H 	0.9623	0.812	0.2851	0.093
Mof_H 	H 	0.281	0.9914	0.7606	0.32
Mof_H 	H 	0.452	0.5773	0.4691	0.016
Mof_H 	H 	0.3639	0.8673	0.3854	-0.007
Mof_H 	H 	0.4691	0.5773	0.452	0.016
Mof_H 	H 	0.4596	0.4461	0.8307	0.009
Mof_H 	H 	0.3216	0.3324	0.538	0.04
Mof_H 	H 	0.4796	0.719	0.7104	0.058
Mof_H 	H 	0.2164	0.6784	0.0108	-0.181
Mof_H 	H 	0.6117	0.0165	0.3614	-0.143
Mof_H 	H 	0.2394	0.2308	0.5204	0.053
Mof_H 	H 	0.3854	0.3639	0.8673	-0.007
Mof_H 	H 	0.452	0.4691	0.5773	0.016
Mof_H 	H 	0.462	0.7836	0.7944	0.043
Mof_H 	H 	0.5977	0.6352	0.4051	0.079
Mof_H 	H 	0.4596	0.8307	0.4461	0.009
Mof_H 	H 	0.8371	0.4144	0.9629	0.083
Mof_H 	H 	0.5404	0.9865	0.3711	0.24
Mof_H 	H 	0.1327	0.5181	0.4966	-0.02
Mof_H 	H 	0.0135	0.5539	0.3846	-0.233
Mof_H 	H 	0.9815	0.4589	0.6726	0.26
Mof_H 	H 	0.6278	0.6658	0.5446	-0.039
Mof_H 	H 	0.4144	0.9629	0.8371	0.083
Mof_H 	H 	0.2877	0.3007	0.704	0.066
Mof_H 	H 	0.2308	0.5204	0.2394	0.053
Mof_H 	H 	0.9855	0.6539	0.132	0.133
Mof_H 	H 	0.7692	0.2896	0.0086	-0.188
Mof_H 	H 	0.8742	0.0371	0.4515	-0.04
Mof_H 	H 	0.7692	0.0086	0.2896	-0.188
Mof_H 	H 	0.6684	0.0145	0.1465	-0.15
Mof_H 	H 	0.2516	0.594	-0	0.091
Mof_H 	H 	0.962	0.8788	0.3342	-0.089
Mof_H 	H 	0.6551	0.6386	0.2503	0.059
Mof_H 	H 	0.0108	0.2164	0.6784	-0.181
Mof_H 	H 	0.868	0.8535	0.5219	0.003
Mof_H 	H 	0.5949	0.2301	0.1926	0.072
Mof_H 	H 	0.3711	0.9865	0.5404	0.24
Mof_H 	H 	0.7123	0.013	0.4163	-0.056
Mof_H 	H 	0.8918	0.4227	0.8747	0.02
Mof_H 	H 	0.9829	0.1082	0.5309	0.473
Mof_H 	H 	0.3648	0.7699	0.9625	-0.071
Mof_H 	H 	0.8209	0.3628	0.8007	0.04
Mof_H 	H 	0.9798	0.1791	0.5419	0.548
Mof_H 	H 	0.4966	0.1327	0.5181	-0.02
Mof_H 	H 	0.6289	0.6154	0.1693	0.002
Mof_H 	H 	0.8788	0.962	0.3342	-0.089
Mof_H 	H 	0.4048	0.7497	0.3883	0.06
Mof_H 	H 	0.5773	0.452	0.4691	0.016
Mof_H 	H 	0.5411	0.5226	0.2137	0.034
Mof_H 	H 	0.1926	0.2301	0.5949	0.072
Mof_H 	H 	0.8497	0.0377	0.3228	-0.003
Mof_H 	H 	0.3639	0.3854	0.8673	-0.007
Mof_H 	H 	0.962	0.3342	0.8788	-0.089
Mof_H 	H 	0.8371	0.9629	0.4144	0.083
Mof_H 	H 	0.4461	0.8307	0.4596	0.009
Mof_H 	H 	0.3722	0.9168	0.038	0.041
Mof_H 	H 	0.1212	0.4554	0.0832	-0.045
Mof_H 	H 	0.3628	0.8007	0.8209	0.04
Mof_H 	H 	0.5856	0.4227	0.5485	0.005
Mof_H 	H 	0.2137	0.5226	0.5411	0.034
Mof_H 	H 	0.594	0.2516	-0	0.091
Mof_H 	H 	0.0165	0.6117	0.3614	-0.143
Mof_H 	H 	0.3614	0.6117	0.0165	-0.143
Mof_H 	H 	0.3854	0.8673	0.3639	-0.007
Mof_H 	H 	0.8918	0.8747	0.4227	0.02
Mof_H 	H 	0.6726	0.9815	0.4589	0.26
Mof_H 	H 	0.548	0.0171	0.1253	-0.435
Mof_H 	H 	0.7863	0.3089	0.3274	0.035
Mof_H 	H 	0.1253	0.548	0.0171	-0.435
Mof_H 	H 	0.8074	0.4023	0.0375	0.221
Mof_H 	H 	0.9785	0.4819	0.6146	0.196
Mof_H 	H 	0.2896	0.0086	0.7692	-0.188
Mof_H 	H 	0.0135	0.3846	0.5539	-0.233
Mof_H 	H 	0.8742	0.4515	0.0371	-0.04
Mof_H 	H 	0.719	0.4796	0.7104	0.058
Mof_H 	H 	0.9168	0.3722	0.038	0.041
Mof_H 	H 	0.3424	0.7484	0.7484	0.105
Mof_H 	H 	0.0086	0.7692	0.2896	-0.188
Mof_H 	H 	0.2851	0.812	0.9623	0.093
Mof_H 	H 	0.8074	0.0375	0.4023	0.221
Mof_H 	H 	0.5967	0.5837	0.296	0.068
Mof_H 	H 	0.281	0.7606	0.9914	0.32
Mof_H 	H 	0.7699	0.3648	0.9625	-0.071
Mof_H 	H 	0.0108	0.6784	0.2164	-0.181
Mof_H 	H 	0.5309	0.1082	0.9829	0.473
Mof_H 	H 	0.4774	0.0185	0.6911	-0.187
Mof_H 	H 	0.3228	0.0377	0.8497	-0.003
Mof_H 	H 	0.9892	0.2056	0.6676	0.255
Mof_H 	H 	0.3846	0.0135	0.5539	-0.232
Mof_H 	H 	0.7863	0.3274	0.3089	0.035
Mof_H 	H 	0.4589	0.6726	0.9815	0.26
Mof_H 	H 	0.719	0.7104	0.4796	0.058
Mof_H 	H 	0.868	0.5219	0.8535	0.003
Mof_H 	H 	0.9835	0.3449	0.5952	0.258
Mof_H 	H 	0.5773	0.1629	0.1258	-0.017
Mof_H 	H 	0.5219	0.8535	0.868	0.003
Mof_H 	H 	0.1212	0.0832	0.4554	-0.045
Mof_H 	H 	0.5621	0.1993	0.0202	-0.468
Mof_H 	H 	0.6676	0.2056	0.9892	0.255
Mof_H 	H 	0.5837	0.5967	0.296	0.068
Mof_H 	H 	0.296	0.5837	0.5967	0.068
Mof_H 	H 	0.9835	0.5952	0.3449	0.258
Mof_H 	H 	0.1693	0.6154	0.6289	0.002
Mof_H 	H 	0.4774	0.6911	0.0185	-0.187
Mof_H 	H 	0.3342	0.8788	0.962	-0.089
Mof_H 	H 	0.4227	0.8747	0.8918	0.02
Mof_H 	H 	0.4966	0.5181	0.1327	-0.02
Mof_H 	H 	0.0371	0.4515	0.8742	-0.04
Mof_H 	H 	0.6278	0.5446	0.6658	-0.039
Mof_H 	H 	0.9168	0.038	0.3722	0.041
Mof_H 	H 	0.7149	0.6772	0.5269	0.055
Mof_H 	H 	0.9623	0.2851	0.812	0.093
Mof_H 	H 	0.5204	0.2308	0.2394	0.053
Mof_H 	H 	0.4589	0.9815	0.6726	0.26
Mof_H 	H 	0.6539	0.132	0.9855	0.133
Mof_H 	H 	0.3274	0.7863	0.3089	0.035
Mof_H 	H 	0.9865	0.3711	0.5404	0.24
Mof_H 	H 	0.3711	0.5404	0.9865	0.24
Mof_H 	H 	0.5621	0.0202	0.1993	-0.468
Mof_H 	H 	0.2164	0.0108	0.6784	-0.181
Mof_H 	H 	0.2301	0.1926	0.5949	0.072
Mof_H 	H 	0.5419	0.1791	0.9798	0.548
Mof_H 	H 	0.3089	0.7863	0.3274	0.035
Mof_H 	H 	0.6146	0.9785	0.4819	0.195
Mof_H 	H 	0.1791	0.9798	0.5419	0.548
Mof_H 	H 	0.406	0.6576	0.406	0.107
Mof_H 	H 	0.6676	0.9892	0.2056	0.255
Mof_H 	H 	0.3883	0.7497	0.4048	0.06
Mof_H 	H 	0.3324	0.538	0.3216	0.04
Mof_H 	H 	0.5181	0.4966	0.1327	-0.02
Mof_H 	H 	0.5837	0.296	0.5967	0.068
Mof_H 	H 	0.7497	0.4048	0.3883	0.06
Mof_H 	H 	0.6658	0.5446	0.6278	-0.039
Mof_H 	H 	0.1465	0.0145	0.6684	-0.15
Mof_H 	H 	0.7104	0.4796	0.719	0.058
Mof_H 	H 	0.6372	0.4379	0.4581	0.043
Mof_H 	H 	0.188	0.4731	0.1503	0.04
Mof_H 	H 	0.1082	0.9829	0.5309	0.473
Mof_H 	H 	0.3461	0.3316	0.4781	-0.013
Mof_H 	H 	0.2056	0.6676	0.9892	0.255
Mof_H 	H 	0.3324	0.3216	0.538	0.04
Mof_H 	H 	0.3089	0.3274	0.7863	0.035
Mof_H 	H 	0.5446	0.6278	0.6658	-0.039
Mof_H 	H 	0.6551	0.2503	0.6386	0.059
Mof_H 	H 	0.5226	0.2137	0.5411	0.034
Mof_H 	H 	0.9892	0.6676	0.2056	0.255
Mof_H 	H 	0.8673	0.3639	0.3854	-0.007
Mof_H 	H 	0.0086	0.2896	0.7692	-0.188
Mof_H 	H 	-0	0.2516	0.594	0.091
Mof_H 	H 	0.2301	0.5949	0.1926	0.072
Mof_H 	H 	0.6361	0.0215	0.5034	-0.224
Mof_H 	H 	0.6386	0.6551	0.2503	0.059
Mof_H 	H 	0.5419	0.9798	0.1791	0.548
Mof_H 	H 	0.4581	0.6372	0.4379	0.043
Mof_H 	H 	0.4144	0.8371	0.9629	0.083
Mof_H 	H 	0.6684	0.1465	0.0145	-0.15
Mof_H 	H 	0.3274	0.3089	0.7863	0.035
Mof_H 	H 	0.8007	0.3628	0.8209	0.04
Mof_H 	H 	0.5309	0.9829	0.1082	0.473
Mof_H 	H 	0.3449	0.5952	0.9835	0.258
Mof_H 	H 	0.3449	0.9835	0.5952	0.258
Mof_H 	H 	0.0375	0.8074	0.4023	0.221
Mof_H 	H 	0.5949	0.1926	0.2301	0.072
Mof_H 	H 	0.296	0.5967	0.5837	0.068
Mof_H 	H 	0.9625	0.7699	0.3648	-0.071
Mof_H 	H 	0.4819	0.9785	0.6146	0.195
Mof_H 	H 	0.4379	0.4581	0.6372	0.043
Mof_H 	H 	0.6352	0.5977	0.4051	0.079
Mof_H 	H 	0.2503	0.6386	0.6551	0.059
Mof_H 	H 	0.9798	0.5419	0.1791	0.548
Mof_H 	H 	0.2137	0.5411	0.5226	0.034
Mof_H 	H 	0.3007	0.704	0.2877	0.066
Mof_H 	H 	0.704	0.2877	0.3007	0.066
Mof_H 	H 	0.5034	0.0215	0.6361	-0.224
Mof_H 	H 	0.5539	0.0135	0.3846	-0.232
Mof_H 	H 	0.038	0.3722	0.9168	0.041
Mof_H 	H 	0.1503	0.188	0.4731	0.04
Mof_H 	H 	0.6576	0.406	0.406	0.107
Mof_H 	H 	0.6289	0.1693	0.6154	0.002
Mof_H 	H 	0.2308	0.2394	0.5204	0.053
Mof_H 	H 	0.0145	0.1465	0.6684	-0.15
Mof_H 	H 	0.4781	0.3316	0.3461	-0.013
Mof_H 	H 	0.1926	0.5949	0.2301	0.072
Mof_H 	H 	0.4731	0.188	0.1503	0.04
Mof_H 	H 	0.1693	0.6289	0.6154	0.002
Mof_H 	H 	0.987	0.4033	0.6993	0.223
Mof_H 	H 	0.5181	0.1327	0.4966	-0.02
Mof_H 	H 	0.4227	0.5485	0.5856	0.005
Mof_H 	H 	0.4819	0.6146	0.9785	0.195
Mof_H 	H 	0.4051	0.6352	0.5977	0.079
Mof_H 	H 	0.3628	0.8209	0.8007	0.04
Mof_H 	H 	0.5977	0.4051	0.6352	0.079
Mof_H 	H 	0.0202	0.1993	0.5621	-0.469
Mof_H 	H 	0.0165	0.3614	0.6117	-0.143
Mof_H 	H 	0.5219	0.868	0.8535	0.003
Mof_H 	H 	0.3461	0.4781	0.3316	-0.013
Mof_H 	H 	0.013	0.4163	0.7123	-0.056
Mof_H 	H 	0.2503	0.6551	0.6386	0.059
Mof_H 	H 	0.812	0.2851	0.9623	0.093
Mof_H 	H 	0.4554	0.1212	0.0832	-0.045
Mof_H 	H 	0.0832	0.4554	0.1212	-0.045
Mof_H 	H 	0.3342	0.962	0.8788	-0.089
Mof_H 	H 	0.538	0.3216	0.3324	0.04
Mof_H 	H 	0.5485	0.5856	0.4227	0.005
Mof_H 	H 	0.6911	0.0185	0.4774	-0.187
Mof_H 	H 	0.5967	0.296	0.5837	0.068
Mof_H 	H 	0.5539	0.3846	0.0135	-0.232
Mof_H 	H 	0.5773	0.1258	0.1629	-0.017
Mof_H 	H 	0.0185	0.6911	0.4774	-0.187
Mof_H 	H 	0.5226	0.5411	0.2137	0.034
Mof_H 	H 	0.9785	0.6146	0.4819	0.196
Mof_H 	H 	0.6539	0.9855	0.132	0.133
Mof_H 	H 	0.4515	0.0371	0.8742	-0.04
Mof_H 	H 	0.132	0.6539	0.9855	0.133
Mof_H 	H 	0.1327	0.4966	0.5181	-0.02
Mof_H 	H 	0.6154	0.6289	0.1693	0.002
Mof_H 	H 	0.8497	0.3228	0.0377	-0.003
Mof_H 	H 	0.5404	0.3711	0.9865	0.24
Mof_H 	H 	0.6361	0.5034	0.0215	-0.224
Mof_H 	H 	0.3216	0.538	0.3324	0.04
Mof_H 	H 	0.8535	0.5219	0.868	0.003
Mof_H 	H 	0.188	0.1503	0.4731	0.04
Mof_H 	H 	0.7836	0.7944	0.462	0.043
Mof_H 	H 	0.4163	0.013	0.7123	-0.056
Mof_H 	H 	0.0171	0.1253	0.548	-0.436
Mof_H 	H 	0.1629	0.5773	0.1258	-0.017
Mof_H 	H 	0.3846	0.5539	0.0135	-0.232
Mof_H 	H 	0.2851	0.9623	0.812	0.093
Mof_H 	H 	0.4554	0.0832	0.1212	-0.045
Mof_H 	H 	0.3316	0.4781	0.3461	-0.013
Mof_H 	H 	0.406	0.406	0.6576	0.107
Mof_H 	H 	0.7123	0.4163	0.013	-0.056
Mof_H 	H 	0.6386	0.2503	0.6551	0.059
Mof_H 	H 	0.4581	0.4379	0.6372	0.043
Mof_H 	H 	0.7944	0.462	0.7836	0.043
Mof_H 	H 	0.5773	0.4691	0.452	0.016
Mof_H 	H 	0.0215	0.5034	0.6361	-0.224
Mof_H 	H 	0.6658	0.6278	0.5446	-0.039
Mof_H 	H 	0.2516	-5.89203e-17	0.594	0.091
Mof_H 	H 	0.812	0.9623	0.2851	0.093
Mof_H 	H 	0.8007	0.8209	0.3628	0.04
Mof_H 	H 	0.4379	0.6372	0.4581	0.043
Mof_H 	H 	0.5411	0.2137	0.5226	0.034
Mof_H 	H 	0.4691	0.452	0.5773	0.016
Mof_H 	H 	0.7484	0.3424	0.7484	0.105
Mof_H 	H 	0.9625	0.3648	0.7699	-0.071
Mof_H 	H 	0.4163	0.7123	0.013	-0.056
Mof_H 	H 	0.4048	0.3883	0.7497	0.06
Mof_H 	H 	0.6784	0.2164	0.0108	-0.181
Mof_H 	H 	0.7699	0.9625	0.3648	-0.071
Mof_H 	H 	0.2896	0.7692	0.0086	-0.188
Mof_H 	H 	0.6784	0.0108	0.2164	-0.181
Mof_H 	H 	0.3614	0.0165	0.6117	-0.143
Mof_H 	H 	0.8747	0.8918	0.4227	0.02
Mof_H 	H 	0.5034	0.6361	0.0215	-0.224
Mof_H 	H 	0.4051	0.5977	0.6352	0.079
Mof_H 	H 	0.3316	0.3461	0.4781	-0.013
Mof_H 	H 	0.3648	0.9625	0.7699	-0.071
Mof_H 	H 	0.9629	0.8371	0.4144	0.083
Mof_H 	H 	0.4515	0.8742	0.0371	-0.04
Mof_H 	H 	0.7606	0.281	0.9914	0.32
Mof_H 	H 	0.7497	0.3883	0.4048	0.06
Mof_H 	H 	0.594	-1.47301e-17	0.2516	0.091
Mof_H 	H 	0.0377	0.3228	0.8497	-0.003
Mof_H 	H 	0.4033	0.6993	0.987	0.223
Mof_H 	H 	0.5204	0.2394	0.2308	0.053
Mof_H 	H 	-0	0.594	0.2516	0.091
Mof_H 	H 	0.1253	0.0171	0.548	-0.435
Mof_H 	H 	0.4461	0.4596	0.8307	0.009
Mof_H 	H 	0.4227	0.5856	0.5485	0.005
Mof_H 	H 	0.8788	0.3342	0.962	-0.089
Mof_H 	H 	0.0202	0.5621	0.1993	-0.469
Mof_H 	H 	0.4796	0.7104	0.719	0.058
Mof_H 	H 	0.3007	0.2877	0.704	0.066
Mof_H 	H 	0.4227	0.8918	0.8747	0.02
Mof_H 	H 	0.6911	0.4774	0.0185	-0.187
Mof_H 	H 	0.6772	0.5269	0.7149	0.055
Mof_H 	H 	0.9815	0.6726	0.4589	0.26
Mof_H 	H 	0.987	0.6993	0.4033	0.223
Mof_H 	H 	0.0832	0.1212	0.4554	-0.045
Mof_H 	H 	0.8747	0.4227	0.8918	0.02
Mof_H 	H 	0.6372	0.4581	0.4379	0.043
Mof_H 	H 	0.5269	0.6772	0.7149	0.055
Mof_H 	H 	0.548	0.1253	0.0171	-0.435
Mof_H 	H 	0.3722	0.038	0.9168	0.041
Mof_H 	H 	0.1258	0.1629	0.5773	-0.017
Mof_H 	H 	0.7606	0.9914	0.281	0.32
Mof_H 	H 	0.1993	0.5621	0.0202	-0.468
Mof_H 	H 	0.6772	0.7149	0.5269	0.055
Mof_H 	H 	0.2877	0.704	0.3007	0.066
Mof_H 	H 	0.0371	0.8742	0.4515	-0.04
Mof_H 	H 	0.9914	0.7606	0.281	0.321
Mof_H 	H 	0.9855	0.132	0.6539	0.133
Mof_H 	H 	0.2056	0.9892	0.6676	0.255
Mof_H 	H 	0.5856	0.5485	0.4227	0.005
Mof_H 	H 	0.538	0.3324	0.3216	0.04
Mof_H 	H 	0.7149	0.5269	0.6772	0.055
Mof_H 	H 	0.4781	0.3461	0.3316	-0.013
Mof_H 	H 	0.6146	0.4819	0.9785	0.195
Mof_H 	H 	0.8535	0.868	0.5219	0.003
Mof_H 	H 	0.5952	0.3449	0.9835	0.258
Mof_H 	H 	0.9914	0.281	0.7606	0.321
Mof_H 	H 	0.1629	0.1258	0.5773	-0.017
Mof_H 	H 	0.1465	0.6684	0.0145	-0.15
Mof_H 	H 	0.2394	0.5204	0.2308	0.053
Mof_C 	C 	0.46862	0.6271	0.01072	0.759
Mof_C 	C 	0.0111	0.1415	0.5722	1.354
Mof_C 	C 	0.9935	0.1884	0.6423	-0.28
Mof_C 	C 	0.48938	0.8469	0.85448	0.034
Mof_C 	C 	1.47301e-17	0.07525	0.59155	0.647
Mof_C 	C 	0.61168	0.6339	0.43338	-0.138
Mof_C 	C 	0.3729	0.38362	0.84152	0.034
Mof_C 	C 	0.45451	0.90642	0.45451	0.532
Mof_C 	C 	0.00758	0.64248	0.1531	0.326
Mof_C 	C 	0.7192	0.9947	0.3065	0.281
Mof_C 	C 	0.85404	0.41772	0.41772	-0.182
Mof_C 	C 	0.0122	0.1845	0.5797	1.513
Mof_C 	C 	0.6475	0	0.2861	0.13
Mof_C 	C 	0.59989	0.60994	0.18083	0.032
Mof_C 	C 	0.6475	0.2861	-0	0.13
Mof_C 	C 	0.57089	0.98995	0.39006	-0.412
Mof_C 	C 	0.4307	0.8585	0.8696	0.033
Mof_C 	C 	0.3857	0.01017	0.61447	0.383
Mof_C 	C 	0.6583	0.68065	0.50555	-0.144
Mof_C 	C 	0.5565	0.54602	0.20632	-0.082
Mof_C 	C 	0.4106	0.7955	0.7955	0.145
Mof_C 	C 	0.88246	-2.94601e-17	0.39793	-0.298
Mof_C 	C 	0.8051	0.8116	0.4539	-0.072
Mof_C 	C 	0.01017	0.3857	0.61447	0.383
Mof_C 	C 	0.83891	0.97781	0.3955	-0.107
Mof_C 	C 	0.5693	0.4389	0.4278	0.04
Mof_C 	C 	0.4203	0.6048	0.4325	-0.08
Mof_C 	C 	0.0182	0.6965	0.3661	1.036
Mof_C 	C 	0.53138	0.5421	0.15848	0.037
Mof_C 	C 	0.15275	0.1751	0.49445	-0.143
Mof_C 	C 	0.371	0.88667	0.02227	-0.137
Mof_C 	C 	0.3525	0.3525	0.6386	0.183
Mof_C 	C 	0.6965	0.0182	0.3661	1.036
Mof_C 	C 	0.1415	0.5722	0.0111	1.353
Mof_C 	C 	0.14596	0.56368	0.56368	-0.203
Mof_C 	C 	0.51062	0.35752	0.3651	0.039
Mof_C 	C 	0.3661	0.0182	0.6965	1.036
Mof_C 	C 	0.34873	0.97773	0.8644	0.319
Mof_C 	C 	0.41769	0.02219	0.8611	0.266
Mof_C 	C 	0.2861	0.6475	-0	0.13
Mof_C 	C 	0.4644	0.6608	0.6608	0.235
Mof_C 	C 	0.88667	0.02227	0.371	-0.137
Mof_C 	C 	0.6043	0.98983	0.37553	-0.523
Mof_C 	C 	0.55659	0.1389	0.16109	0.077
Mof_C 	C 	0.44341	0.6045	0.58231	0.077
Mof_C 	C 	0.8116	0.8051	0.4539	-0.072
Mof_C 	C 	0.4325	0.6048	0.4203	-0.08
Mof_C 	C 	0.02235	0.84725	0.3417	0.036
Mof_C 	C 	0.6608	0.6608	0.4644	0.235
Mof_C 	C 	0.50555	0.6583	0.68065	-0.144
Mof_C 	C 	0.62447	0.22877	0.6143	-0.086
Mof_C 	C 	0.01048	0.45398	0.6603	0.572
Mof_C 	C 	0.60207	0.48453	0.60207	-0.274
Mof_C 	C 	0.4325	0.4203	0.6048	-0.08
Mof_C 	C 	0.8217	0.38832	0.02222	-0.409
Mof_C 	C 	0.88246	0.39793	-0	-0.298
Mof_C 	C 	0.84725	0.3417	0.02235	0.036
Mof_C 	C 	0.4435	0.98952	0.64982	-0.707
Mof_C 	C 	0.5356	0.1964	0.1964	0.229
Mof_C 	C 	0.1845	0.0122	0.5797	1.512
Mof_C 	C 	0.5565	0.20632	0.54602	-0.082
Mof_C 	C 	0.5421	0.15848	0.53138	0.037
Mof_C 	C 	0.1751	0.49445	0.15275	-0.143
Mof_C 	C 	0.6882	0.4127	0.6935	0.068
Mof_C 	C 	0.1949	0.0065	0.6488	0.169
Mof_C 	C 	0.7245	0.3118	0.0053	-0.136
Mof_C 	C 	0.9889	0.5611	0.1304	-1.256
Mof_C 	C 	0.3035	0.3217	0.6696	0.084
Mof_C 	C 	0.20632	0.5565	0.54602	-0.082
Mof_C 	C 	0.4579	0.61638	0.98928	-0.653
Mof_C 	C 	0.5461	0.3577	0.3512	-0.078
Mof_C 	C 	0.3217	0.6696	0.3035	0.084
Mof_C 	C 	1.47301e-17	0.4074	0.649	0.102
Mof_C 	C 	0.6783	0.3479	0.9818	-0.844
Mof_C 	C 	0.3729	0.84152	0.38362	0.034
Mof_C 	C 	2.94601e-17	0.54549	0.45191	0.552
Mof_C 	C 	0.40011	0.01005	0.58094	0.511
Mof_C 	C 	0.3512	0.5461	0.3577	-0.078
Mof_C 	C 	1.47301e-17	0.2861	0.6475	0.13
Mof_C 	C 	0.02222	0.38832	0.8217	-0.409
Mof_C 	C 	0.6423	0.1884	0.9935	-0.28
Mof_C 	C 	0.3577	0.3512	0.5461	-0.078
Mof_C 	C 	0.1723	0.5675	0.9878	-1.631
Mof_C 	C 	0.01048	0.6603	0.45398	0.572
Mof_C 	C 	0.5675	0.9878	0.1723	-1.632
Mof_C 	C 	0.45398	0.01048	0.6603	0.571
Mof_C 	C 	0.38362	0.3729	0.84152	0.034
Mof_C 	C 	0.9818	0.3479	0.6783	-0.844
Mof_C 	C 	0.39793	0.88246	-0	-0.298
Mof_C 	C 	0.6339	0.43338	0.61168	-0.138
Mof_C 	C 	0.7955	0.7955	0.4106	0.145
Mof_C 	C 	0.8792	0.8792	0.479	-0.202
Mof_C 	C 	0.84725	0.02235	0.3417	0.036
Mof_C 	C 	1.47301e-17	0.88246	0.39793	-0.298
Mof_C 	C 	0.5926	0.5926	0.2416	0.157
Mof_C 	C 	0.59989	0.18083	0.60994	0.032
Mof_C 	C 	0.3118	0.7245	0.0053	-0.136
Mof_C 	C 	0.98928	0.61638	0.4579	-0.654
Mof_C 	C 	0.51547	0.11754	0.11754	-0.27
Mof_C 	C 	0.45191	-5.89203e-17	0.54549	0.552
Mof_C 	C 	0.92567	0.43013	-0	0.584
Mof_C 	C 	0.6339	0.3304	0.6521	0.086
Mof_C 	C 	0.9889	0.1304	0.5611	-1.256
Mof_C 	C 	0.5894	0.3849	0.3849	0.148
Mof_C 	C 	0.15848	0.53138	0.5421	0.037
Mof_C 	C 	0.8469	0.48938	0.85448	0.034
Mof_C 	C 	0.9935	0.6423	0.1884	-0.28
Mof_C 	C 	0.3417	0.84725	0.02235	0.036
Mof_C 	C 	0.2808	0.5873	0.2755	0.065
Mof_C 	C 	0.42911	0.81917	0.41906	0.032
Mof_C 	C 	0.1884	0.6423	0.9935	-0.28
Mof_C 	C 	0.1415	0.0111	0.5722	1.353
Mof_C 	C 	0.5797	0.0122	0.1845	1.512
Mof_C 	C 	0.8792	0.479	0.8792	-0.202
Mof_C 	C 	0.02219	0.8611	0.41769	0.266
Mof_C 	C 	0.92567	0	0.43013	0.584
Mof_C 	C 	0.1531	0.64248	0.00758	0.325
Mof_C 	C 	0.4307	0.8696	0.8585	0.033
Mof_C 	C 	0.5722	0.1415	0.0111	1.353
Mof_C 	C 	0.41906	0.42911	0.81917	0.032
Mof_C 	C 	0.7139	0.7139	0.3614	0.184
Mof_C 	C 	0.81917	0.42911	0.41906	0.032
Mof_C 	C 	0.6882	0.6935	0.4127	0.068
Mof_C 	C 	0.51567	0.65127	0.629	0.088
Mof_C 	C 	0.2045	-5.89203e-17	0.6151	0.074
Mof_C 	C 	0.35752	0.51062	0.3651	0.04
Mof_C 	C 	0.3035	0.6696	0.3217	0.084
Mof_C 	C 	0.02227	0.371	0.88667	-0.137
Mof_C 	C 	0.5461	0.3512	0.3577	-0.078
Mof_C 	C 	0.54549	0.45191	-0	0.552
Mof_C 	C 	0.6583	0.50555	0.68065	-0.144
Mof_C 	C 	0.61638	0.4579	0.98928	-0.653
Mof_C 	C 	0.1356	0.11333	0.48433	0.083
Mof_C 	C 	0.8585	0.4307	0.8696	0.033
Mof_C 	C 	0.1356	0.48433	0.11333	0.083
Mof_C 	C 	0.0111	0.5722	0.1415	1.354
Mof_C 	C 	0.07525	-5.89203e-17	0.59155	0.647
Mof_C 	C 	0.4278	0.4389	0.5693	0.04
Mof_C 	C 	0.6271	0.46862	0.01072	0.759
Mof_C 	C 	0.51567	0.629	0.65127	0.088
Mof_C 	C 	0.57089	0.39006	0.98995	-0.412
Mof_C 	C 	0.3849	0.3849	0.5894	0.148
Mof_C 	C 	0.5693	0.4278	0.4389	0.04
Mof_C 	C 	0.4278	0.5693	0.4389	0.04
Mof_C 	C 	0.50446	0.07433	0.07433	0.638
Mof_C 	C 	0.54602	0.20632	0.5565	-0.082
Mof_C 	C 	0.3065	0.7192	0.9947	0.281
Mof_C 	C 	0.45398	0.6603	0.01048	0.571
Mof_C 	C 	0.98952	0.64982	0.4435	-0.707
Mof_C 	C 	0.98995	0.57089	0.39006	-0.412
Mof_C 	C 	0.3661	0.79948	0.97778	0.199
Mof_C 	C 	0.38553	0.3957	0.77123	-0.082
Mof_C 	C 	0.6603	0.45398	0.01048	0.571
Mof_C 	C 	0.5998	0.1208	-0	-0.282
Mof_C 	C 	0.43013	0.92567	-0	0.584
Mof_C 	C 	0.3955	0.83891	0.97781	-0.108
Mof_C 	C 	0.39793	-1.17841e-16	0.88246	-0.298
Mof_C 	C 	0.4127	0.6935	0.6882	0.068
Mof_C 	C 	0.4539	0.8051	0.8116	-0.072
Mof_C 	C 	0.54602	0.5565	0.20632	-0.082
Mof_C 	C 	0.3952	0.8277	0.8155	-0.075
Mof_C 	C 	0.84152	0.38362	0.3729	0.034
Mof_C 	C 	0.8036	0.3392	-0	0.145
Mof_C 	C 	0.64248	0.00758	0.1531	0.325
Mof_C 	C 	0.0122	0.5797	0.1845	1.513
Mof_C 	C 	0.8696	0.8585	0.4307	0.033
Mof_C 	C 	0.39006	0.98995	0.57089	-0.412
Mof_C 	C 	0.38362	0.84152	0.3729	0.034
Mof_C 	C 	0.00758	0.1531	0.64248	0.326
Mof_C 	C 	0.20052	0.1783	0.56662	-0.14
Mof_C 	C 	0.6048	0.4325	0.4203	-0.08
Mof_C 	C 	0.6339	0.6521	0.3304	0.086
Mof_C 	C 	0.6488	0.1949	0.0065	0.169
Mof_C 	C 	0.99242	0.14552	0.6349	-0.228
Mof_C 	C 	0.59155	0.07525	-0	0.647
Mof_C 	C 	0.7955	0.4106	0.7955	0.145
Mof_C 	C 	0.1751	0.15275	0.49445	-0.143
Mof_C 	C 	0.9947	0.3065	0.7192	0.281
Mof_C 	C 	0.1949	0.6488	0.0065	0.169
Mof_C 	C 	0.54809	0.09358	0.54809	0.535
Mof_C 	C 	0.5797	0.1845	0.0122	1.512
Mof_C 	C 	0.3651	0.51062	0.35752	0.04
Mof_C 	C 	0.41769	0.8611	0.02219	0.266
Mof_C 	C 	0.6045	0.44341	0.58231	0.077
Mof_C 	C 	0.97765	0.8249	0.31935	-0.26
Mof_C 	C 	0.43338	0.61168	0.6339	-0.138
Mof_C 	C 	0.01005	0.40011	0.58094	0.511
Mof_C 	C 	0.0065	0.6488	0.1949	0.17
Mof_C 	C 	0.38832	0.8217	0.02222	-0.409
Mof_C 	C 	0.6143	0.62447	0.22877	-0.086
Mof_C 	C 	0.8155	0.8277	0.3952	-0.075
Mof_C 	C 	0.18083	0.59989	0.60994	0.032
Mof_C 	C 	0.3065	0.9947	0.7192	0.281
Mof_C 	C 	0.97781	0.3955	0.83891	-0.108
Mof_C 	C 	0.35752	0.3651	0.51062	0.04
Mof_C 	C 	0.49554	0.56987	0.56987	0.666
Mof_C 	C 	0.45191	0.54549	-0	0.552
Mof_C 	C 	0.60994	0.59989	0.18083	0.032
Mof_C 	C 	0.1389	0.55659	0.16109	0.077
Mof_C 	C 	0.5611	0.1304	0.9889	-1.255
Mof_C 	C 	0.56987	0.56987	0.49554	0.666
Mof_C 	C 	0.5873	0.2755	0.2808	0.065
Mof_C 	C 	0.0065	0.1949	0.6488	0.17
Mof_C 	C 	0.8611	0.02219	0.41769	0.266
Mof_C 	C 	2.94601e-17	0.1208	0.5998	-0.282
Mof_C 	C 	0.4539	0.8116	0.8051	-0.072
Mof_C 	C 	0.56368	0.56368	0.14596	-0.203
Mof_C 	C 	0.1884	0.9935	0.6423	-0.28
Mof_C 	C 	0.02227	0.88667	0.371	-0.137
Mof_C 	C 	0.68065	0.6583	0.50555	-0.144
Mof_C 	C 	0.1964	0.1964	0.5356	0.229
Mof_C 	C 	0.61168	0.43338	0.6339	-0.138
Mof_C 	C 	0.4074	0	0.649	0.102
Mof_C 	C 	0.2861	0	0.6475	0.13
Mof_C 	C 	0.65127	0.629	0.51567	0.088
Mof_C 	C 	0.5998	-7.36503e-18	0.1208	-0.282
Mof_C 	C 	0.6521	0.3304	0.6339	0.086
Mof_C 	C 	0.8249	0.97765	0.31935	-0.26
Mof_C 	C 	0.6045	0.58231	0.44341	0.077
Mof_C 	C 	0.6048	0.4203	0.4325	-0.08
Mof_C 	C 	0.8217	0.02222	0.38832	-0.409
Mof_C 	C 	0.521	0.4002	0.4002	-0.237
Mof_C 	C 	0.9818	0.6783	0.3479	-0.844
Mof_C 	C 	0.8696	0.4307	0.8585	0.033
Mof_C 	C 	0.1723	0.9878	0.5675	-1.631
Mof_C 	C 	0.3614	0.7139	0.7139	0.184
Mof_C 	C 	0.479	0.8792	0.8792	-0.202
Mof_C 	C 	0.4127	0.6882	0.6935	0.068
Mof_C 	C 	0.79948	0.3661	0.97778	0.199
Mof_C 	C 	-0	0.58228	0.43632	-0.263
Mof_C 	C 	0.3955	0.97781	0.83891	-0.108
Mof_C 	C 	5.89203e-17	0.43013	0.92567	0.584
Mof_C 	C 	0.50555	0.68065	0.6583	-0.144
Mof_C 	C 	0.7245	0.0053	0.3118	-0.136
Mof_C 	C 	0.81917	0.41906	0.42911	0.032
Mof_C 	C 	0.8277	0.8155	0.3952	-0.075
Mof_C 	C 	0.02235	0.3417	0.84725	0.036
Mof_C 	C 	0.7139	0.3614	0.7139	0.184
Mof_C 	C 	0.4837	0.40845	0.40845	0.669
Mof_C 	C 	-3.68252e-17	0.6151	0.2045	0.074
Mof_C 	C 	0.77123	0.38553	0.3957	-0.082
Mof_C 	C 	0.98983	0.6043	0.37553	-0.524
Mof_C 	C 	0.20632	0.54602	0.5565	-0.082
Mof_C 	C 	0.5722	0.0111	0.1415	1.353
Mof_C 	C 	0.0182	0.3661	0.6965	1.036
Mof_C 	C 	0.07433	0.07433	0.50446	0.638
Mof_C 	C 	0.77123	0.3957	0.38553	-0.082
Mof_C 	C 	0.6603	0.01048	0.45398	0.571
Mof_C 	C 	0.40845	0.40845	0.4837	0.669
Mof_C 	C 	0.1389	0.16109	0.55659	0.077
Mof_C 	C 	0.02219	0.41769	0.8611	0.266
Mof_C 	C 	-2.94601e-17	0.39793	0.88246	-0.298
Mof_C 	C 	0.65127	0.51567	0.629	0.088
Mof_C 	C 	0.2045	0.6151	-0	0.074
Mof_C 	C 	0.56662	0.20052	0.1783	-0.141
Mof_C 	C 	0.58228	0	0.43632	-0.263
Mof_C 	C 	0.98995	0.39006	0.57089	-0.412
Mof_C 	C 	0.2416	0.5926	0.5926	0.157
Mof_C 	C 	-1.47301e-17	0.6475	0.2861	0.13
Mof_C 	C 	0.1208	0.5998	-0	-0.282
Mof_C 	C 	0.60994	0.18083	0.59989	0.032
Mof_C 	C 	0.11754	0.51547	0.11754	-0.27
Mof_C 	C 	0.6521	0.6339	0.3304	0.086
Mof_C 	C 	0.3957	0.77123	0.38553	-0.082
Mof_C 	C 	0.8051	0.4539	0.8116	-0.072
Mof_C 	C 	4.41902e-17	0.92567	0.43013	0.584
Mof_C 	C 	-5.89203e-17	0.45191	0.54549	0.552
Mof_C 	C 	0.48453	0.60207	0.60207	-0.274
Mof_C 	C 	0.97773	0.34873	0.8644	0.319
Mof_C 	C 	0.64982	0.4435	0.98952	-0.707
Mof_C 	C 	0.5873	0.2808	0.2755	0.065
Mof_C 	C 	0.92475	0.5163	0.92475	0.623
Mof_C 	C 	0.5163	0.92475	0.92475	0.623
Mof_C 	C 	0.6488	0.0065	0.1949	0.169
Mof_C 	C 	0.4203	0.4325	0.6048	-0.08
Mof_C 	C 	0.31935	0.97765	0.8249	-0.26
Mof_C 	C 	0.3957	0.38553	0.77123	-0.082
Mof_C 	C 	-7.36503e-18	0.5998	0.1208	-0.282
Mof_C 	C 	0.9878	0.5675	0.1723	-1.633
Mof_C 	C 	0.55659	0.16109	0.1389	0.077
Mof_C 	C 	-9.20629e-18	0.59155	0.07525	0.647
Mof_C 	C 	0.49445	0.1751	0.15275	-0.143
Mof_C 	C 	0.649	0	0.4074	0.102
Mof_C 	C 	0.6349	0.99242	0.14552	-0.227
Mof_C 	C 	0.58094	0.01005	0.40011	0.511
Mof_C 	C 	0.8277	0.3952	0.8155	-0.075
Mof_C 	C 	0.3392	-5.89203e-17	0.8036	0.145
Mof_C 	C 	0.6935	0.6882	0.4127	0.068
Mof_C 	C 	0.84152	0.3729	0.38362	0.034
Mof_C 	C 	0.4579	0.98928	0.61638	-0.653
Mof_C 	C 	0.3525	0.6386	0.3525	0.183
Mof_C 	C 	0.38832	0.02222	0.8217	-0.409
Mof_C 	C 	0.3217	0.3035	0.6696	0.084
Mof_C 	C 	0.01072	0.46862	0.6271	0.759
Mof_C 	C 	0.6696	0.3217	0.3035	0.084
Mof_C 	C 	0.1304	0.9889	0.5611	-1.254
Mof_C 	C 	0.629	0.65127	0.51567	0.088
Mof_C 	C 	0.14552	0.6349	0.99242	-0.227
Mof_C 	C 	0.6965	0.3661	0.0182	1.036
Mof_C 	C 	0.3304	0.6521	0.6339	0.086
Mof_C 	C 	-1.47301e-17	0.43632	0.58228	-0.263
Mof_C 	C 	0.3417	0.02235	0.84725	0.036
Mof_C 	C 	0.3512	0.3577	0.5461	-0.078
Mof_C 	C 	0.34873	0.8644	0.97773	0.319
Mof_C 	C 	0.97778	0.3661	0.79948	0.199
Mof_C 	C 	0.6608	0.4644	0.6608	0.235
Mof_C 	C 	0.64248	0.1531	0.00758	0.325
Mof_C 	C 	0.64982	0.98952	0.4435	-0.707
Mof_C 	C 	0.351	0.7584	0.351	0.156
Mof_C 	C 	0.07433	0.50446	0.07433	0.638
Mof_C 	C 	0.31935	0.8249	0.97765	-0.26
Mof_C 	C 	0.58231	0.6045	0.44341	0.077
Mof_C 	C 	0.1783	0.20052	0.56662	-0.141
Mof_C 	C 	0.79368	0.3397	0.35018	-0.078
Mof_C 	C 	0.54549	0	0.45191	0.552
Mof_C 	C 	0.0053	0.7245	0.3118	-0.136
Mof_C 	C 	0.97781	0.83891	0.3955	-0.108
Mof_C 	C 	0.22877	0.6143	0.62447	-0.086
Mof_C 	C 	0.83891	0.3955	0.97781	-0.107
Mof_C 	C 	0.8249	0.31935	0.97765	-0.26
Mof_C 	C 	0.7192	0.3065	0.9947	0.281
Mof_C 	C 	0.1845	0.5797	0.0122	1.512
Mof_C 	C 	0.7584	0.351	0.351	0.156
Mof_C 	C 	0.98983	0.37553	0.6043	-0.524
Mof_C 	C 	0.9878	0.1723	0.5675	-1.633
Mof_C 	C 	0.8155	0.3952	0.8277	-0.075
Mof_C 	C 	0.3849	0.5894	0.3849	0.148
Mof_C 	C 	0.60207	0.60207	0.48453	-0.274
Mof_C 	C 	0.61447	0.3857	0.01017	0.383
Mof_C 	C 	0.43013	0	0.92567	0.584
Mof_C 	C 	0.3479	0.6783	0.9818	-0.844
Mof_C 	C 	0.15848	0.5421	0.53138	0.037
Mof_C 	C 	0.4002	0.521	0.4002	-0.237
Mof_C 	C 	0.58228	0.43632	-0	-0.263
Mof_C 	C 	0.56987	0.49554	0.56987	0.666
Mof_C 	C 	0.43338	0.6339	0.61168	-0.138
Mof_C 	C 	0.46862	0.01072	0.6271	0.759
Mof_C 	C 	0.16109	0.55659	0.1389	0.077
Mof_C 	C 	0.649	0.4074	-0	0.102
Mof_C 	C 	0.6696	0.3035	0.3217	0.084
Mof_C 	C 	0.53138	0.15848	0.5421	0.037
Mof_C 	C 	0.5611	0.9889	0.1304	-1.255
Mof_C 	C 	0.1964	0.5356	0.1964	0.229
Mof_C 	C 	0.88667	0.371	0.02227	-0.137
Mof_C 	C 	0.2808	0.2755	0.5873	0.065
Mof_C 	C 	0.5926	0.2416	0.5926	0.157
Mof_C 	C 	0.41772	0.41772	0.85404	-0.182
Mof_C 	C 	0.20052	0.56662	0.1783	-0.14
Mof_C 	C 	0.59155	-7.36503e-18	0.07525	0.647
Mof_C 	C 	0.11333	0.1356	0.48433	0.083
Mof_C 	C 	0.45451	0.45451	0.90642	0.532
Mof_C 	C 	0.3397	0.35018	0.79368	-0.078
Mof_C 	C 	0.38553	0.77123	0.3957	-0.082
Mof_C 	C 	5.15552e-17	0.8036	0.3392	0.145
Mof_C 	C 	0.92475	0.92475	0.5163	0.623
Mof_C 	C 	0.8585	0.8696	0.4307	0.033
Mof_C 	C 	0.4002	0.4002	0.521	-0.237
Mof_C 	C 	0.4389	0.4278	0.5693	0.04
Mof_C 	C 	0.07525	0.59155	-0	0.647
Mof_C 	C 	0.61638	0.98928	0.4579	-0.653
Mof_C 	C 	0.11754	0.11754	0.51547	-0.27
Mof_C 	C 	0.629	0.51567	0.65127	0.088
Mof_C 	C 	0.62447	0.6143	0.22877	-0.086
Mof_C 	C 	0.6423	0.9935	0.1884	-0.28
Mof_C 	C 	0.351	0.351	0.7584	0.156
Mof_C 	C 	0.79368	0.35018	0.3397	-0.078
Mof_C 	C 	0.2755	0.5873	0.2808	0.065
Mof_C 	C 	0.14552	0.99242	0.6349	-0.227
Mof_C 	C 	0.4389	0.5693	0.4278	0.04
Mof_C 	C 	0.02222	0.8217	0.38832	-0.409
Mof_C 	C 	0.56368	0.14596	0.56368	-0.203
Mof_C 	C 	0.3952	0.8155	0.8277	-0.075
Mof_C 	C 	0.1208	-5.89203e-17	0.5998	-0.282
Mof_C 	C 	0.58094	0.40011	0.01005	0.511
Mof_C 	C 	0.6935	0.4127	0.6882	0.068
Mof_C 	C 	0.1304	0.5611	0.9889	-1.254
Mof_C 	C 	0.3661	0.6965	0.0182	1.036
Mof_C 	C 	0.3304	0.6339	0.6521	0.086
Mof_C 	C 	0.43632	-5.89203e-17	0.58228	-0.263
Mof_C 	C 	0.58231	0.44341	0.6045	0.077
Mof_C 	C 	0.48938	0.85448	0.8469	0.034
Mof_C 	C 	0.01017	0.61447	0.3857	0.383
Mof_C 	C 	0.3392	0.8036	-0	0.145
Mof_C 	C 	0.61447	0.01017	0.3857	0.383
Mof_C 	C 	0.2755	0.2808	0.5873	0.065
Mof_C 	C 	0.37553	0.6043	0.98983	-0.523
Mof_C 	C 	0.16109	0.1389	0.55659	0.077
Mof_C 	C 	0.6151	0	0.2045	0.074
Mof_C 	C 	0.18083	0.60994	0.59989	0.032
Mof_C 	C 	0.43632	0.58228	-0	-0.263
Mof_C 	C 	0.6349	0.14552	0.99242	-0.227
Mof_C 	C 	0.371	0.02227	0.88667	-0.137
Mof_C 	C 	0.9947	0.7192	0.3065	0.281
Mof_C 	C 	0.44341	0.58231	0.6045	0.077
Mof_C 	C 	0.56662	0.1783	0.20052	-0.141
Mof_C 	C 	-0	0.2045	0.6151	0.074
Mof_C 	C 	0.85448	0.8469	0.48938	0.034
Mof_C 	C 	0.15275	0.49445	0.1751	-0.143
Mof_C 	C 	0.3651	0.35752	0.51062	0.04
Mof_C 	C 	0.6339	0.61168	0.43338	-0.138
Mof_C 	C 	0.6143	0.22877	0.62447	-0.086
Mof_C 	C 	0.41906	0.81917	0.42911	0.032
Mof_C 	C 	4.41902e-17	0.649	0.4074	0.102
Mof_C 	C 	0.6271	0.01072	0.46862	0.759
Mof_C 	C 	0.8036	0	0.3392	0.145
Mof_C 	C 	0.8469	0.85448	0.48938	0.034
Mof_C 	C 	0.48433	0.1356	0.11333	0.083
Mof_C 	C 	0.8116	0.4539	0.8051	-0.072
Mof_C 	C 	0.49445	0.15275	0.1751	-0.143
Mof_C 	C 	0.98952	0.4435	0.64982	-0.707
Mof_C 	C 	0.5421	0.53138	0.15848	0.037
Mof_C 	C 	0.97765	0.31935	0.8249	-0.26
Mof_C 	C 	0.1531	0.00758	0.64248	0.325
Mof_C 	C 	0.85448	0.48938	0.8469	0.034
Mof_C 	C 	0.11333	0.48433	0.1356	0.083
Mof_C 	C 	0.90642	0.45451	0.45451	0.532
Mof_C 	C 	0.3479	0.9818	0.6783	-0.844
Mof_C 	C 	0.35018	0.79368	0.3397	-0.078
Mof_C 	C 	0.3397	0.79368	0.35018	-0.078
Mof_C 	C 	0.01005	0.58094	0.40011	0.511
Mof_C 	C 	0.40011	0.58094	0.01005	0.511
Mof_C 	C 	0.5675	0.1723	0.9878	-1.632
Mof_C 	C 	0.01072	0.6271	0.46862	0.759
Mof_C 	C 	5.89203e-17	0.3392	0.8036	0.145
Mof_C 	C 	0.4435	0.64982	0.98952	-0.707
Mof_C 	C 	0.79948	0.97778	0.3661	0.199
Mof_C 	C 	0.8644	0.34873	0.97773	0.319
Mof_C 	C 	0.48433	0.11333	0.1356	0.083
Mof_C 	C 	0.8644	0.97773	0.34873	0.319
Mof_C 	C 	0.98928	0.4579	0.61638	-0.654
Mof_C 	C 	0.6783	0.9818	0.3479	-0.844
Mof_C 	C 	0.0053	0.3118	0.7245	-0.136
Mof_C 	C 	0.22877	0.62447	0.6143	-0.086
Mof_C 	C 	0.6043	0.37553	0.98983	-0.523
Mof_C 	C 	0.40845	0.4837	0.40845	0.669
Mof_C 	C 	0.6386	0.3525	0.3525	0.183
Mof_C 	C 	0.35018	0.3397	0.79368	-0.078
Mof_C 	C 	0.3118	0.0053	0.7245	-0.136
Mof_C 	C 	0.51062	0.3651	0.35752	0.039
Mof_C 	C 	0.3577	0.5461	0.3512	-0.078
Mof_C 	C 	0.68065	0.50555	0.6583	-0.144
Mof_C 	C 	0.39006	0.57089	0.98995	-0.412
Mof_C 	C 	0.1783	0.56662	0.20052	-0.141
Mof_C 	C 	0.97778	0.79948	0.3661	0.199
Mof_C 	C 	0.3857	0.61447	0.01017	0.383
Mof_C 	C 	0.8611	0.41769	0.02219	0.266
Mof_C 	C 	0.3661	0.97778	0.79948	0.199
Mof_C 	C 	0.99242	0.6349	0.14552	-0.228
Mof_C 	C 	0.97773	0.8644	0.34873	0.319
Mof_C 	C 	0.41772	0.85404	0.41772	-0.182
Mof_C 	C 	0.4074	0.649	-0	0.102
Mof_C 	C 	0.6151	0.2045	-0	0.074
Mof_C 	C 	0.09358	0.54809	0.54809	0.535
Mof_C 	C 	0.37553	0.98983	0.6043	-0.523
Mof_C 	C 	0.54809	0.54809	0.09358	0.535
Mof_C 	C 	0.42911	0.41906	0.81917	0.032
Mof_N 	N 	0.6422	0.3187	0.9859	0.174
Mof_N 	N 	0.7194	0.3444	0.9914	2.419
Mof_N 	N 	0.6069	0.2888	0.6069	-0.239
Mof_N 	N 	0.6765	0.3437	0.3578	-0.096
Mof_N 	N 	0.3328	0.0141	0.6563	-0.345
Mof_N 	N 	0.321	0.3116	0.5942	-0.08
Mof_N 	N 	0.6765	0.3578	0.3437	-0.096
Mof_N 	N 	0.3931	-5.89203e-17	0.6819	-0.271
Mof_N 	N 	0.625	0.272	0.2806	-0.078
Mof_N 	N 	0.375	0.647	0.6556	-0.077
Mof_N 	N 	0.2888	0.6069	0.6069	-0.239
Mof_N 	N 	0.6422	0.9859	0.3187	0.174
Mof_N 	N 	0.45444	0.68982	0.68982	-0.234
Mof_N 	N 	0.31018	0.76462	-0	-0.255
Mof_N 	N 	0.3235	0.6813	0.6672	-0.097
Mof_N 	N 	0.9914	0.7194	0.3444	2.42
Mof_N 	N 	0.728	0.0086	0.353	-2.572
Mof_N 	N 	0.2826	0.0094	0.6884	-0.21
Mof_N 	N 	0.23538	0.54556	0.23538	-0.233
Mof_N 	N 	0.0086	0.728	0.353	-2.572
Mof_N 	N 	0.6884	0.2826	0.0094	-0.21
Mof_N 	N 	0.2475	0	0.6187	-0.206
Mof_N 	N 	0.3116	0.321	0.5942	-0.08
Mof_N 	N 	0.3437	0.6765	0.3578	-0.096
Mof_N 	N 	0.7525	0.3712	0.7525	-0.219
Mof_N 	N 	0.3187	0.9859	0.6422	0.174
Mof_N 	N 	0.31018	0	0.76462	-0.255
Mof_N 	N 	0.3813	0.3813	0.6288	-0.221
Mof_N 	N 	0.3181	0.3181	0.7112	-0.237
Mof_N 	N 	0.6288	0.3813	0.3813	-0.221
Mof_N 	N 	3.68252e-17	0.6819	0.3931	-0.271
Mof_N 	N 	0.7268	0.4058	0.7174	-0.079
Mof_N 	N 	0.3187	0.6422	0.9859	0.174
Mof_N 	N 	0.6813	0.3235	0.6672	-0.097
Mof_N 	N 	0.2475	0.6187	-0	-0.206
Mof_N 	N 	0.5942	0.3116	0.321	-0.08
Mof_N 	N 	0.9906	0.679	0.2732	0.07
Mof_N 	N 	0.3235	0.6672	0.6813	-0.097
Mof_N 	N 	0.6187	-1.47301e-17	0.2475	-0.206
Mof_N 	N 	0.6556	0.375	0.647	-0.077
Mof_N 	N 	0.6672	0.3235	0.6813	-0.097
Mof_N 	N 	0.6556	0.647	0.375	-0.077
Mof_N 	N 	0.68982	0.68982	0.45444	-0.234
Mof_N 	N 	0.2826	0.6884	0.0094	-0.21
Mof_N 	N 	0.6819	0.3931	-0	-0.271
Mof_N 	N 	0.9914	0.3444	0.7194	2.42
Mof_N 	N 	0.3444	0.9914	0.7194	2.42
Mof_N 	N 	0.647	0.375	0.6556	-0.077
Mof_N 	N 	0.679	0.9906	0.2732	0.07
Mof_N 	N 	0.3181	0.7112	0.3181	-0.237
Mof_N 	N 	2.94601e-17	0.3931	0.6819	-0.271
Mof_N 	N 	0.0141	0.6563	0.3328	-0.345
Mof_N 	N 	0.3116	0.5942	0.321	-0.08
Mof_N 	N 	0.625	0.2806	0.272	-0.078
Mof_N 	N 	0.6672	0.6813	0.3235	-0.097
Mof_N 	N 	0.3328	0.6563	0.0141	-0.345
Mof_N 	N 	0.7112	0.3181	0.3181	-0.237
Mof_N 	N 	0.76462	0	0.31018	-0.255
Mof_N 	N 	0.9859	0.6422	0.3187	0.175
Mof_N 	N 	-2.20951e-17	0.6187	0.2475	-0.206
Mof_N 	N 	0.3437	0.3578	0.6765	-0.096
Mof_N 	N 	0.0086	0.353	0.728	-2.572
Mof_N 	N 	0.7194	0.9914	0.3444	2.419
Mof_N 	N 	0.3578	0.6765	0.3437	-0.096
Mof_N 	N 	0.7525	0.7525	0.3712	-0.219
Mof_N 	N 	0.7174	0.4058	0.7268	-0.079
Mof_N 	N 	4.41902e-17	0.76462	0.31018	-0.255
Mof_N 	N 	0.2806	0.625	0.272	-0.078
Mof_N 	N 	0.3813	0.6288	0.3813	-0.221
Mof_N 	N 	0.3931	0.6819	-0	-0.271
Mof_N 	N 	0.9906	0.2732	0.679	0.07
Mof_N 	N 	0.68982	0.45444	0.68982	-0.234
Mof_N 	N 	0.23538	0.23538	0.54556	-0.233
Mof_N 	N 	0.272	0.625	0.2806	-0.078
Mof_N 	N 	0.2806	0.272	0.625	-0.078
Mof_N 	N 	0.54556	0.23538	0.23538	-0.233
Mof_N 	N 	0.6187	0.2475	-0	-0.206
Mof_N 	N 	0.0094	0.2826	0.6884	-0.21
Mof_N 	N 	0.6813	0.6672	0.3235	-0.097
Mof_N 	N 	0.6563	0.3328	0.0141	-0.345
Mof_N 	N 	0.0094	0.6884	0.2826	-0.21
Mof_N 	N 	0.353	0.0086	0.728	-2.572
Mof_N 	N 	-1.47301e-17	0.2475	0.6187	-0.206
Mof_N 	N 	0.76462	0.31018	-0	-0.255
Mof_N 	N 	0.321	0.5942	0.3116	-0.08
Mof_N 	N 	0.272	0.2806	0.625	-0.078
Mof_N 	N 	0.2732	0.9906	0.679	0.07
Mof_N 	N 	0.2732	0.679	0.9906	0.07
Mof_N 	N 	0.3712	0.7525	0.7525	-0.219
Mof_N 	N 	0.9859	0.3187	0.6422	0.175
Mof_N 	N 	0.3578	0.3437	0.6765	-0.096
Mof_N 	N 	0.7174	0.7268	0.4058	-0.079
Mof_N 	N 	0.375	0.6556	0.647	-0.077
Mof_N 	N 	0.6884	0.0094	0.2826	-0.21
Mof_N 	N 	1.47301e-17	0.31018	0.76462	-0.255
Mof_N 	N 	0.3444	0.7194	0.9914	2.42
Mof_N 	N 	0.6069	0.6069	0.2888	-0.239
Mof_N 	N 	0.6819	-2.94601e-17	0.3931	-0.271
Mof_N 	N 	0.679	0.2732	0.9906	0.07
Mof_N 	N 	0.4058	0.7268	0.7174	-0.079
Mof_N 	N 	0.7268	0.7174	0.4058	-0.079
Mof_N 	N 	0.0141	0.3328	0.6563	-0.345
Mof_N 	N 	0.4058	0.7174	0.7268	-0.079
Mof_N 	N 	0.353	0.728	0.0086	-2.572
Mof_N 	N 	0.728	0.353	0.0086	-2.572
Mof_N 	N 	0.5942	0.321	0.3116	-0.08
Mof_N 	N 	0.6563	0.0141	0.3328	-0.345
Mof_N 	N 	0.647	0.6556	0.375	-0.077
Mof_O 	O 	0.9453	0.4739	0.0174	-0.447
Mof_O 	O 	0.5286	0.0547	0.0721	-0.433
Mof_O 	O 	0.46044	0.05212	0.05212	-0.573
Mof_O 	O 	0.916	0.4896	0.4896	-0.469
Mof_O 	O 	0.5736	0.5736	0.084	-0.508
Mof_O 	O 	0.9447	0.9447	0.499	-0.604
Mof_O 	O 	0.6188	0.0592	-0	-0.688
Mof_O 	O 	0.4565	0.9279	0.9826	-0.331
Mof_O 	O 	0.94788	0.40832	-0	-0.533
Mof_O 	O 	0.4404	0.3812	0.3812	-0.702
Mof_O 	O 	0.59168	0.59168	0.53956	-0.595
Mof_O 	O 	5.89203e-17	0.40832	0.94788	-0.533
Mof_O 	O 	0.55337	0.48943	-0	-0.621
Mof_O 	O 	0.4264	-2.94601e-17	0.5104	-0.523
Mof_O 	O 	0.48943	0.55337	-0	-0.621
Mof_O 	O 	0.4264	0.5104	-0	-0.523
Mof_O 	O 	0.53956	0.59168	0.59168	-0.595
Mof_O 	O 	0.9826	0.4565	0.9279	-0.331
Mof_O 	O 	0.93606	0.44663	0.44663	-0.557
Mof_O 	O 	0.0174	0.4739	0.9453	-0.447
Mof_O 	O 	0.9453	0.0174	0.4739	-0.447
Mof_O 	O 	0.4896	0.916	0.4896	-0.469
Mof_O 	O 	0.0174	0.9453	0.4739	-0.447
Mof_O 	O 	0.9408	0.5596	0.9408	-0.596
Mof_O 	O 	0.4457	0.4457	0.501	-0.7
Mof_O 	O 	0.9408	0.9408	0.5596	-0.596
Mof_O 	O 	0.0553	0.5543	-0	-0.678
Mof_O 	O 	0.9826	0.9279	0.4565	-0.331
Mof_O 	O 	0.5286	0.0721	0.0547	-0.433
Mof_O 	O 	0.4739	0.0174	0.9453	-0.447
Mof_O 	O 	0.5596	0.9408	0.9408	-0.596
Mof_O 	O 	0.499	0.9447	0.9447	-0.604
Mof_O 	O 	2.94601e-17	0.94788	0.40832	-0.533
Mof_O 	O 	0.3812	0.3812	0.4404	-0.702
Mof_O 	O 	2.20951e-17	0.5543	0.0553	-0.678
Mof_O 	O 	0.0592	-5.89203e-17	0.6188	-0.688
Mof_O 	O 	0.501	0.4457	0.4457	-0.7
Mof_O 	O 	0.44663	0.44663	0.93606	-0.557
Mof_O 	O 	0.5261	0.5435	0.4714	-0.457
Mof_O 	O 	0.40832	0	0.94788	-0.533
Mof_O 	O 	0.5104	-2.94601e-17	0.4264	-0.523
Mof_O 	O 	0.06394	0.51057	0.51057	-0.602
Mof_O 	O 	-0	0.0592	0.6188	-0.688
Mof_O 	O 	0.59168	0.53956	0.59168	-0.595
Mof_O 	O 	0.5543	-3.68252e-18	0.0553	-0.678
Mof_O 	O 	2.94601e-17	0.5104	0.4264	-0.523
Mof_O 	O 	0.4739	0.9453	0.0174	-0.447
Mof_O 	O 	0.0547	0.5286	0.0721	-0.433
Mof_O 	O 	0.51057	0.06394	0.51057	-0.602
Mof_O 	O 	0.4714	0.5435	0.5261	-0.457
Mof_O 	O 	0.3812	0.4404	0.3812	-0.702
Mof_O 	O 	0.5104	0.4264	-0	-0.523
Mof_O 	O 	2.94601e-17	0.4264	0.5104	-0.523
Mof_O 	O 	0.55337	-5.89203e-17	0.48943	-0.621
Mof_O 	O 	0.0592	0.6188	-0	-0.688
Mof_O 	O 	5.89203e-17	0.0553	0.5543	-0.678
Mof_O 	O 	0.5543	0.0553	-0	-0.678
Mof_O 	O 	0.5435	0.5261	0.4714	-0.457
Mof_O 	O 	0.05212	0.46044	0.05212	-0.573
Mof_O 	O 	0.4457	0.501	0.4457	-0.7
Mof_O 	O 	0.51057	0.51057	0.06394	-0.602
Mof_O 	O 	0.44663	0.93606	0.44663	-0.557
Mof_O 	O 	0.05212	0.05212	0.46044	-0.573
Mof_O 	O 	0.0721	0.5286	0.0547	-0.433
Mof_O 	O 	0.5435	0.4714	0.5261	-0.457
Mof_O 	O 	0.4565	0.9826	0.9279	-0.331
Mof_O 	O 	0.40832	0.94788	-0	-0.533
Mof_O 	O 	-1.28888e-17	0.6188	0.0592	-0.688
Mof_O 	O 	0.5261	0.4714	0.5435	-0.457
Mof_O 	O 	0.0547	0.0721	0.5286	-0.433
Mof_O 	O 	0.9447	0.499	0.9447	-0.604
Mof_O 	O 	0.9279	0.9826	0.4565	-0.331
Mof_O 	O 	0.084	0.5736	0.5736	-0.508
Mof_O 	O 	0.0721	0.0547	0.5286	-0.433
Mof_O 	O 	0.4714	0.5261	0.5435	-0.457
Mof_O 	O 	0.94788	0	0.40832	-0.533
Mof_O 	O 	0.48943	-5.89203e-17	0.55337	-0.621
Mof_O 	O 	0.9279	0.4565	0.9826	-0.331
Mof_O 	O 	0.6188	-3.68252e-18	0.0592	-0.688
Mof_O 	O 	0.4896	0.4896	0.916	-0.469
Mof_O 	O 	0.0553	0	0.5543	-0.678
Mof_O 	O 	0.5736	0.084	0.5736	-0.508
Mof_O 	O 	2.94601e-17	0.48943	0.55337	-0.621
Mof_O 	O 	2.94601e-17	0.55337	0.48943	-0.621
_end
