data_functionalizedCrystal
_audit_creation_method	'EQeq! by Chris Wilmer'
_symmetry_space_group_name_H-M	'P1'
_symmetry_Int_Tables_number	1
_symmetry_cell_setting	triclinic
loop_
_symmetry_equiv_pos_as_xyz
  x,y,z
_cell_length_a	39.938
_cell_length_b	39.938
_cell_length_c	39.938
_cell_angle_alpha	90
_cell_angle_beta	90
_cell_angle_gamma	90
loop_
_atom_site_label
_atom_site_type_symbol
_atom_site_fract_x
_atom_site_fract_y
_atom_site_fract_z
_atom_site_charge
Mof_O 	O 	0.87874	0.0355	0.67106	-0.486
Mof_O 	O 	0.8393	0.03549	0.71006	-0.479
Mof_C 	C 	0.86577	0.04617	0.69797	0.4
Mof_C 	C 	0.88238	0.07474	0.71471	-0.096
Mof_C 	C 	0.87055	0.08664	0.74486	-0.056
Mof_H 	H 	0.852	0.076	0.7552	0.058
Mof_H 	H 	0.8834	0.145	0.8027	0.055
Mof_C 	C 	0.7561	0.9668	0.7288	-0.053
Mof_H 	H 	0.773	0.9494	0.7338	0.029
Mof_C 	C 	0.7417	0.9868	0.7146	0.057
Mof_H 	H 	0.8554	0.1215	0.8036	0.047
Mof_H 	H 	0.8899	0.1417	0.8059	-0.01
Mof_H 	H 	0.8894	0.1021	0.8121	0.048
Mof_H 	H 	0.7459	0.9617	0.7068	0.005
Mof_H 	H 	0.7454	0.9637	0.7066	0.011
Mof_O 	O 	0.87874	0.5355	0.17106	-0.482
Mof_O 	O 	0.8393	0.53549	0.21006	-0.477
Mof_C 	C 	0.86577	0.54617	0.19797	0.4
Mof_C 	C 	0.88238	0.57474	0.21471	-0.095
Mof_C 	C 	0.87055	0.58664	0.24486	-0.056
Mof_H 	H 	0.852	0.576	0.2552	0.058
Mof_H 	H 	0.8834	0.645	0.3027	0.055
Mof_C 	C 	0.7561	0.4668	0.2288	-0.029
Mof_H 	H 	0.773	0.4494	0.2338	0.019
Mof_C 	C 	0.7417	0.4868	0.2146	-0.017
Mof_H 	H 	0.8554	0.6215	0.3036	0.047
Mof_H 	H 	0.8899	0.6417	0.3059	-0.01
Mof_H 	H 	0.8894	0.6021	0.3121	0.049
Mof_H 	H 	0.7459	0.4617	0.2068	0.016
Mof_H 	H 	0.7454	0.4637	0.2066	0.012
Mof_O 	O 	0.37874	0.0355	0.17106	-0.487
Mof_O 	O 	0.3393	0.03549	0.21006	-0.479
Mof_C 	C 	0.36577	0.04617	0.19797	0.4
Mof_C 	C 	0.38238	0.07474	0.21471	-0.097
Mof_C 	C 	0.37055	0.08664	0.24486	-0.055
Mof_H 	H 	0.352	0.076	0.2552	0.057
Mof_H 	H 	0.3834	0.145	0.3027	0.055
Mof_C 	C 	0.2561	0.9668	0.2288	-0.053
Mof_H 	H 	0.273	0.9494	0.2338	0.029
Mof_C 	C 	0.2417	0.9868	0.2146	0.057
Mof_H 	H 	0.3554	0.1215	0.3036	0.046
Mof_H 	H 	0.3899	0.1417	0.3059	-0.01
Mof_H 	H 	0.3894	0.1021	0.3121	0.048
Mof_H 	H 	0.2459	0.9617	0.2068	0.005
Mof_H 	H 	0.2454	0.9637	0.2066	0.011
Mof_O 	O 	0.37874	0.5355	0.67106	-0.483
Mof_O 	O 	0.3393	0.53549	0.71006	-0.477
Mof_C 	C 	0.36577	0.54617	0.69797	0.4
Mof_C 	C 	0.38238	0.57474	0.71471	-0.096
Mof_C 	C 	0.37055	0.58664	0.74486	-0.055
Mof_H 	H 	0.352	0.576	0.7552	0.058
Mof_H 	H 	0.3834	0.645	0.8027	0.055
Mof_C 	C 	0.2561	0.4668	0.7288	-0.029
Mof_H 	H 	0.273	0.4494	0.7338	0.019
Mof_C 	C 	0.2417	0.4868	0.7146	-0.017
Mof_H 	H 	0.3554	0.6215	0.8036	0.047
Mof_H 	H 	0.3899	0.6417	0.8059	-0.01
Mof_H 	H 	0.3894	0.6021	0.8121	0.05
Mof_H 	H 	0.2459	0.4617	0.7068	0.016
Mof_H 	H 	0.2454	0.4637	0.7066	0.012
Mof_O 	O 	0.12126	0.9645	0.67106	-0.478
Mof_O 	O 	0.1607	0.96451	0.71006	-0.472
Mof_C 	C 	0.13423	0.95383	0.69797	0.399
Mof_C 	C 	0.11762	0.92526	0.71471	-0.094
Mof_C 	C 	0.12945	0.91336	0.74486	-0.056
Mof_H 	H 	0.148	0.924	0.7552	0.059
Mof_H 	H 	0.1166	0.855	0.8027	0.055
Mof_C 	C 	0.2439	0.0332	0.7288	-0.009
Mof_H 	H 	0.227	0.0506	0.7338	0.01
Mof_C 	C 	0.2583	0.0132	0.7146	-0.072
Mof_H 	H 	0.1446	0.8785	0.8036	0.047
Mof_H 	H 	0.1101	0.8583	0.8059	-0.01
Mof_H 	H 	0.1106	0.8979	0.8121	0.052
Mof_H 	H 	0.2541	0.0383	0.7068	0.025
Mof_H 	H 	0.2546	0.0363	0.7066	0.013
Mof_O 	O 	0.12126	0.4645	0.17106	-0.484
Mof_O 	O 	0.1607	0.46451	0.21006	-0.478
Mof_C 	C 	0.13423	0.45383	0.19797	0.4
Mof_C 	C 	0.11762	0.42526	0.21471	-0.097
Mof_C 	C 	0.12945	0.41336	0.24486	-0.055
Mof_H 	H 	0.148	0.424	0.2552	0.057
Mof_H 	H 	0.1166	0.355	0.3027	0.055
Mof_C 	C 	0.2439	0.5332	0.2288	-0.029
Mof_H 	H 	0.227	0.5506	0.2338	0.019
Mof_C 	C 	0.2583	0.5132	0.2146	-0.017
Mof_H 	H 	0.1446	0.3785	0.3036	0.047
Mof_H 	H 	0.1101	0.3583	0.3059	-0.01
Mof_H 	H 	0.1106	0.3979	0.3121	0.05
Mof_H 	H 	0.2541	0.5383	0.2068	0.016
Mof_H 	H 	0.2546	0.5363	0.2066	0.012
Mof_O 	O 	0.62126	0.9645	0.17106	-0.478
Mof_O 	O 	0.6607	0.96451	0.21006	-0.472
Mof_C 	C 	0.63423	0.95383	0.19797	0.399
Mof_C 	C 	0.61762	0.92526	0.21471	-0.093
Mof_C 	C 	0.62945	0.91336	0.24486	-0.056
Mof_H 	H 	0.648	0.924	0.2552	0.059
Mof_H 	H 	0.6166	0.855	0.3027	0.055
Mof_C 	C 	0.7439	0.0332	0.2288	-0.009
Mof_H 	H 	0.727	0.0506	0.2338	0.01
Mof_C 	C 	0.7583	0.0132	0.2146	-0.072
Mof_H 	H 	0.6446	0.8785	0.3036	0.047
Mof_H 	H 	0.6101	0.8583	0.3059	-0.01
Mof_H 	H 	0.6106	0.8979	0.3121	0.051
Mof_H 	H 	0.7541	0.0383	0.2068	0.025
Mof_H 	H 	0.7546	0.0363	0.2066	0.013
Mof_O 	O 	0.62126	0.4645	0.67106	-0.483
Mof_O 	O 	0.6607	0.46451	0.71006	-0.477
Mof_C 	C 	0.63423	0.45383	0.69797	0.4
Mof_C 	C 	0.61762	0.42526	0.71471	-0.096
Mof_C 	C 	0.62945	0.41336	0.74486	-0.055
Mof_H 	H 	0.648	0.424	0.7552	0.058
Mof_H 	H 	0.6166	0.355	0.8027	0.055
Mof_C 	C 	0.7439	0.5332	0.7288	-0.029
Mof_H 	H 	0.727	0.5506	0.7338	0.019
Mof_C 	C 	0.7583	0.5132	0.7146	-0.017
Mof_H 	H 	0.6446	0.3785	0.8036	0.047
Mof_H 	H 	0.6101	0.3583	0.8059	-0.01
Mof_H 	H 	0.6106	0.3979	0.8121	0.05
Mof_H 	H 	0.7541	0.5383	0.7068	0.016
Mof_H 	H 	0.7546	0.5363	0.7066	0.012
Mof_O 	O 	0.12126	0.0355	0.32894	-0.488
Mof_O 	O 	0.1607	0.03549	0.28994	-0.48
Mof_C 	C 	0.13423	0.04617	0.30203	0.4
Mof_C 	C 	0.11762	0.07474	0.28529	-0.098
Mof_C 	C 	0.12945	0.08664	0.25514	-0.055
Mof_H 	H 	0.148	0.076	0.2448	0.057
Mof_H 	H 	0.1166	0.145	0.1973	0.054
Mof_C 	C 	0.2439	0.9668	0.2712	-0.053
Mof_H 	H 	0.227	0.9494	0.2662	0.029
Mof_C 	C 	0.2583	0.9868	0.2854	0.057
Mof_H 	H 	0.1446	0.1215	0.1964	0.046
Mof_H 	H 	0.1101	0.1417	0.1941	-0.01
Mof_H 	H 	0.1106	0.1021	0.1879	0.048
Mof_H 	H 	0.2541	0.9617	0.2932	0.006
Mof_H 	H 	0.2546	0.9637	0.2934	0.011
Mof_O 	O 	0.12126	0.5355	0.82894	-0.483
Mof_O 	O 	0.1607	0.53549	0.78994	-0.477
Mof_C 	C 	0.13423	0.54617	0.80203	0.401
Mof_C 	C 	0.11762	0.57474	0.78529	-0.095
Mof_C 	C 	0.12945	0.58664	0.75514	-0.054
Mof_H 	H 	0.148	0.576	0.7448	0.058
Mof_H 	H 	0.1166	0.645	0.6973	0.056
Mof_C 	C 	0.2439	0.4668	0.7712	-0.028
Mof_H 	H 	0.227	0.4494	0.7662	0.02
Mof_C 	C 	0.2583	0.4868	0.7854	-0.016
Mof_H 	H 	0.1446	0.6215	0.6964	0.048
Mof_H 	H 	0.1101	0.6417	0.6941	-0.009
Mof_H 	H 	0.1106	0.6021	0.6879	0.051
Mof_H 	H 	0.2541	0.4617	0.7932	0.017
Mof_H 	H 	0.2546	0.4637	0.7934	0.013
Mof_O 	O 	0.62126	0.0355	0.82894	-0.485
Mof_O 	O 	0.6607	0.03549	0.78994	-0.478
Mof_C 	C 	0.63423	0.04617	0.80203	0.401
Mof_C 	C 	0.61762	0.07474	0.78529	-0.096
Mof_C 	C 	0.62945	0.08664	0.75514	-0.054
Mof_H 	H 	0.648	0.076	0.7448	0.058
Mof_H 	H 	0.6166	0.145	0.6973	0.056
Mof_C 	C 	0.7439	0.9668	0.7712	-0.052
Mof_H 	H 	0.727	0.9494	0.7662	0.03
Mof_C 	C 	0.7583	0.9868	0.7854	0.058
Mof_H 	H 	0.6446	0.1215	0.6964	0.047
Mof_H 	H 	0.6101	0.1417	0.6941	-0.009
Mof_H 	H 	0.6106	0.1021	0.6879	0.049
Mof_H 	H 	0.7541	0.9617	0.7932	0.007
Mof_H 	H 	0.7546	0.9637	0.7934	0.012
Mof_O 	O 	0.62126	0.5355	0.32894	-0.482
Mof_O 	O 	0.6607	0.53549	0.28994	-0.476
Mof_C 	C 	0.63423	0.54617	0.30203	0.401
Mof_C 	C 	0.61762	0.57474	0.28529	-0.095
Mof_C 	C 	0.62945	0.58664	0.25514	-0.054
Mof_H 	H 	0.648	0.576	0.2448	0.059
Mof_H 	H 	0.6166	0.645	0.1973	0.056
Mof_C 	C 	0.7439	0.4668	0.2712	-0.028
Mof_H 	H 	0.727	0.4494	0.2662	0.02
Mof_C 	C 	0.7583	0.4868	0.2854	-0.016
Mof_H 	H 	0.6446	0.6215	0.1964	0.048
Mof_H 	H 	0.6101	0.6417	0.1941	-0.009
Mof_H 	H 	0.6106	0.6021	0.1879	0.05
Mof_H 	H 	0.7541	0.4617	0.2932	0.017
Mof_H 	H 	0.7546	0.4637	0.2934	0.013
Mof_O 	O 	0.87874	0.9645	0.32894	-0.475
Mof_O 	O 	0.8393	0.96451	0.28994	-0.47
Mof_C 	C 	0.86577	0.95383	0.30203	0.4
Mof_C 	C 	0.88238	0.92526	0.28529	-0.091
Mof_C 	C 	0.87055	0.91336	0.25514	-0.056
Mof_H 	H 	0.852	0.924	0.2448	0.061
Mof_H 	H 	0.8834	0.855	0.1973	0.057
Mof_C 	C 	0.7561	0.0332	0.2712	-0.008
Mof_H 	H 	0.773	0.0506	0.2662	0.011
Mof_C 	C 	0.7417	0.0132	0.2854	-0.071
Mof_H 	H 	0.8554	0.8785	0.1964	0.048
Mof_H 	H 	0.8899	0.8583	0.1941	-0.009
Mof_H 	H 	0.8894	0.8979	0.1879	0.052
Mof_H 	H 	0.7459	0.0383	0.2932	0.026
Mof_H 	H 	0.7454	0.0363	0.2934	0.014
Mof_O 	O 	0.87874	0.4645	0.82894	-0.481
Mof_O 	O 	0.8393	0.46451	0.78994	-0.476
Mof_C 	C 	0.86577	0.45383	0.80203	0.401
Mof_C 	C 	0.88238	0.42526	0.78529	-0.093
Mof_C 	C 	0.87055	0.41336	0.75514	-0.055
Mof_H 	H 	0.852	0.424	0.7448	0.059
Mof_H 	H 	0.8834	0.355	0.6973	0.056
Mof_C 	C 	0.7561	0.5332	0.7712	-0.028
Mof_H 	H 	0.773	0.5506	0.7662	0.02
Mof_C 	C 	0.7417	0.5132	0.7854	-0.016
Mof_H 	H 	0.8554	0.3785	0.6964	0.048
Mof_H 	H 	0.8899	0.3583	0.6941	-0.009
Mof_H 	H 	0.8894	0.3979	0.6879	0.05
Mof_H 	H 	0.7459	0.5383	0.7932	0.017
Mof_H 	H 	0.7454	0.5363	0.7934	0.013
Mof_O 	O 	0.37874	0.9645	0.82894	-0.476
Mof_O 	O 	0.3393	0.96451	0.78994	-0.471
Mof_C 	C 	0.36577	0.95383	0.80203	0.4
Mof_C 	C 	0.38238	0.92526	0.78529	-0.092
Mof_C 	C 	0.37055	0.91336	0.75514	-0.055
Mof_H 	H 	0.352	0.924	0.7448	0.06
Mof_H 	H 	0.3834	0.855	0.6973	0.056
Mof_C 	C 	0.2561	0.0332	0.7712	-0.008
Mof_H 	H 	0.273	0.0506	0.7662	0.011
Mof_C 	C 	0.2417	0.0132	0.7854	-0.071
Mof_H 	H 	0.3554	0.8785	0.6964	0.048
Mof_H 	H 	0.3899	0.8583	0.6941	-0.009
Mof_H 	H 	0.3894	0.8979	0.6879	0.052
Mof_H 	H 	0.2459	0.0383	0.7932	0.026
Mof_H 	H 	0.2454	0.0363	0.7934	0.014
Mof_O 	O 	0.37874	0.4645	0.32894	-0.482
Mof_O 	O 	0.3393	0.46451	0.28994	-0.476
Mof_C 	C 	0.36577	0.45383	0.30203	0.401
Mof_C 	C 	0.38238	0.42526	0.28529	-0.095
Mof_C 	C 	0.37055	0.41336	0.25514	-0.054
Mof_H 	H 	0.352	0.424	0.2448	0.059
Mof_H 	H 	0.3834	0.355	0.1973	0.056
Mof_C 	C 	0.2561	0.5332	0.2712	-0.028
Mof_H 	H 	0.273	0.5506	0.2662	0.02
Mof_C 	C 	0.2417	0.5132	0.2854	-0.016
Mof_H 	H 	0.3554	0.3785	0.1964	0.048
Mof_H 	H 	0.3899	0.3583	0.1941	-0.009
Mof_H 	H 	0.3894	0.3979	0.1879	0.05
Mof_H 	H 	0.2459	0.5383	0.2932	0.017
Mof_H 	H 	0.2454	0.5363	0.2934	0.013
Mof_O 	O 	0.67106	0.87874	0.0355	-0.485
Mof_O 	O 	0.71006	0.8393	0.03549	-0.478
Mof_C 	C 	0.69797	0.86577	0.04617	0.401
Mof_C 	C 	0.71471	0.88238	0.07474	-0.095
Mof_C 	C 	0.74486	0.87055	0.08664	-0.055
Mof_H 	H 	0.7552	0.852	0.076	0.059
Mof_H 	H 	0.8027	0.8834	0.145	0.056
Mof_C 	C 	0.7288	0.7561	0.9668	-0.052
Mof_H 	H 	0.7338	0.773	0.9494	0.03
Mof_C 	C 	0.7146	0.7417	0.9868	0.058
Mof_H 	H 	0.8036	0.8554	0.1215	0.048
Mof_H 	H 	0.8059	0.8899	0.1417	-0.009
Mof_H 	H 	0.8121	0.8894	0.1021	0.049
Mof_H 	H 	0.7068	0.7459	0.9617	0.006
Mof_H 	H 	0.7066	0.7454	0.9637	0.012
Mof_O 	O 	0.67106	0.37874	0.5355	-0.482
Mof_O 	O 	0.71006	0.3393	0.53549	-0.476
Mof_C 	C 	0.69797	0.36577	0.54617	0.401
Mof_C 	C 	0.71471	0.38238	0.57474	-0.095
Mof_C 	C 	0.74486	0.37055	0.58664	-0.054
Mof_H 	H 	0.7552	0.352	0.576	0.059
Mof_H 	H 	0.8027	0.3834	0.645	0.056
Mof_C 	C 	0.7288	0.2561	0.4668	-0.028
Mof_H 	H 	0.7338	0.273	0.4494	0.02
Mof_C 	C 	0.7146	0.2417	0.4868	-0.016
Mof_H 	H 	0.8036	0.3554	0.6215	0.048
Mof_H 	H 	0.8059	0.3899	0.6417	-0.009
Mof_H 	H 	0.8121	0.3894	0.6021	0.051
Mof_H 	H 	0.7068	0.2459	0.4617	0.017
Mof_H 	H 	0.7066	0.2454	0.4637	0.013
Mof_O 	O 	0.17106	0.87874	0.5355	-0.481
Mof_O 	O 	0.21006	0.8393	0.53549	-0.476
Mof_C 	C 	0.19797	0.86577	0.54617	0.401
Mof_C 	C 	0.21471	0.88238	0.57474	-0.094
Mof_C 	C 	0.24486	0.87055	0.58664	-0.055
Mof_H 	H 	0.2552	0.852	0.576	0.059
Mof_H 	H 	0.3027	0.8834	0.645	0.056
Mof_C 	C 	0.2288	0.7561	0.4668	-0.028
Mof_H 	H 	0.2338	0.773	0.4494	0.02
Mof_C 	C 	0.2146	0.7417	0.4868	-0.016
Mof_H 	H 	0.3036	0.8554	0.6215	0.048
Mof_H 	H 	0.3059	0.8899	0.6417	-0.009
Mof_H 	H 	0.3121	0.8894	0.6021	0.05
Mof_H 	H 	0.2068	0.7459	0.4617	0.017
Mof_H 	H 	0.2066	0.7454	0.4637	0.013
Mof_O 	O 	0.17106	0.37874	0.0355	-0.486
Mof_O 	O 	0.21006	0.3393	0.03549	-0.478
Mof_C 	C 	0.19797	0.36577	0.04617	0.401
Mof_C 	C 	0.21471	0.38238	0.07474	-0.096
Mof_C 	C 	0.24486	0.37055	0.08664	-0.054
Mof_H 	H 	0.2552	0.352	0.076	0.058
Mof_H 	H 	0.3027	0.3834	0.145	0.056
Mof_C 	C 	0.2288	0.2561	0.9668	-0.052
Mof_H 	H 	0.2338	0.273	0.9494	0.03
Mof_C 	C 	0.2146	0.2417	0.9868	0.058
Mof_H 	H 	0.3036	0.3554	0.1215	0.047
Mof_H 	H 	0.3059	0.3899	0.1417	-0.009
Mof_H 	H 	0.3121	0.3894	0.1021	0.049
Mof_H 	H 	0.2068	0.2459	0.9617	0.006
Mof_H 	H 	0.2066	0.2454	0.9637	0.012
Mof_O 	O 	0.67106	0.12126	0.9645	-0.477
Mof_O 	O 	0.71006	0.1607	0.96451	-0.471
Mof_C 	C 	0.69797	0.13423	0.95383	0.4
Mof_C 	C 	0.71471	0.11762	0.92526	-0.093
Mof_C 	C 	0.74486	0.12945	0.91336	-0.055
Mof_H 	H 	0.7552	0.148	0.924	0.06
Mof_H 	H 	0.8027	0.1166	0.855	0.056
Mof_C 	C 	0.7288	0.2439	0.0332	-0.008
Mof_H 	H 	0.7338	0.227	0.0506	0.011
Mof_C 	C 	0.7146	0.2583	0.0132	-0.071
Mof_H 	H 	0.8036	0.1446	0.8785	0.048
Mof_H 	H 	0.8059	0.1101	0.8583	-0.009
Mof_H 	H 	0.8121	0.1106	0.8979	0.053
Mof_H 	H 	0.7068	0.2541	0.0383	0.026
Mof_H 	H 	0.7066	0.2546	0.0363	0.014
Mof_O 	O 	0.67106	0.62126	0.4645	-0.482
Mof_O 	O 	0.71006	0.6607	0.46451	-0.476
Mof_C 	C 	0.69797	0.63423	0.45383	0.401
Mof_C 	C 	0.71471	0.61762	0.42526	-0.095
Mof_C 	C 	0.74486	0.62945	0.41336	-0.054
Mof_H 	H 	0.7552	0.648	0.424	0.059
Mof_H 	H 	0.8027	0.6166	0.355	0.056
Mof_C 	C 	0.7288	0.7439	0.5332	-0.028
Mof_H 	H 	0.7338	0.727	0.5506	0.02
Mof_C 	C 	0.7146	0.7583	0.5132	-0.016
Mof_H 	H 	0.8036	0.6446	0.3785	0.048
Mof_H 	H 	0.8059	0.6101	0.3583	-0.009
Mof_H 	H 	0.8121	0.6106	0.3979	0.051
Mof_H 	H 	0.7068	0.7541	0.5383	0.017
Mof_H 	H 	0.7066	0.7546	0.5363	0.013
Mof_O 	O 	0.17106	0.12126	0.4645	-0.483
Mof_O 	O 	0.21006	0.1607	0.46451	-0.477
Mof_C 	C 	0.19797	0.13423	0.45383	0.401
Mof_C 	C 	0.21471	0.11762	0.42526	-0.096
Mof_C 	C 	0.24486	0.12945	0.41336	-0.054
Mof_H 	H 	0.2552	0.148	0.424	0.058
Mof_H 	H 	0.3027	0.1166	0.355	0.056
Mof_C 	C 	0.2288	0.2439	0.5332	-0.028
Mof_H 	H 	0.2338	0.227	0.5506	0.02
Mof_C 	C 	0.2146	0.2583	0.5132	-0.016
Mof_H 	H 	0.3036	0.1446	0.3785	0.048
Mof_H 	H 	0.3059	0.1101	0.3583	-0.009
Mof_H 	H 	0.3121	0.1106	0.3979	0.051
Mof_H 	H 	0.2068	0.2541	0.5383	0.017
Mof_H 	H 	0.2066	0.2546	0.5363	0.013
Mof_O 	O 	0.17106	0.62126	0.9645	-0.477
Mof_O 	O 	0.21006	0.6607	0.96451	-0.471
Mof_C 	C 	0.19797	0.63423	0.95383	0.4
Mof_C 	C 	0.21471	0.61762	0.92526	-0.092
Mof_C 	C 	0.24486	0.62945	0.91336	-0.055
Mof_H 	H 	0.2552	0.648	0.924	0.06
Mof_H 	H 	0.3027	0.6166	0.855	0.056
Mof_C 	C 	0.2288	0.7439	0.0332	-0.008
Mof_H 	H 	0.2338	0.727	0.0506	0.011
Mof_C 	C 	0.2146	0.7583	0.0132	-0.071
Mof_H 	H 	0.3036	0.6446	0.8785	0.048
Mof_H 	H 	0.3059	0.6101	0.8583	-0.009
Mof_H 	H 	0.3121	0.6106	0.8979	0.052
Mof_H 	H 	0.2068	0.7541	0.0383	0.026
Mof_H 	H 	0.2066	0.7546	0.0363	0.014
Mof_O 	O 	0.32894	0.12126	0.0355	-0.487
Mof_O 	O 	0.28994	0.1607	0.03549	-0.479
Mof_C 	C 	0.30203	0.13423	0.04617	0.401
Mof_C 	C 	0.28529	0.11762	0.07474	-0.097
Mof_C 	C 	0.25514	0.12945	0.08664	-0.054
Mof_H 	H 	0.2448	0.148	0.076	0.058
Mof_H 	H 	0.1973	0.1166	0.145	0.055
Mof_C 	C 	0.2712	0.2439	0.9668	-0.052
Mof_H 	H 	0.2662	0.227	0.9494	0.03
Mof_C 	C 	0.2854	0.2583	0.9868	0.058
Mof_H 	H 	0.1964	0.1446	0.1215	0.047
Mof_H 	H 	0.1941	0.1101	0.1417	-0.009
Mof_H 	H 	0.1879	0.1106	0.1021	0.049
Mof_H 	H 	0.2932	0.2541	0.9617	0.007
Mof_H 	H 	0.2934	0.2546	0.9637	0.012
Mof_O 	O 	0.32894	0.62126	0.5355	-0.482
Mof_O 	O 	0.28994	0.6607	0.53549	-0.476
Mof_C 	C 	0.30203	0.63423	0.54617	0.401
Mof_C 	C 	0.28529	0.61762	0.57474	-0.095
Mof_C 	C 	0.25514	0.62945	0.58664	-0.054
Mof_H 	H 	0.2448	0.648	0.576	0.059
Mof_H 	H 	0.1973	0.6166	0.645	0.056
Mof_C 	C 	0.2712	0.7439	0.4668	-0.028
Mof_H 	H 	0.2662	0.727	0.4494	0.02
Mof_C 	C 	0.2854	0.7583	0.4868	-0.016
Mof_H 	H 	0.1964	0.6446	0.6215	0.048
Mof_H 	H 	0.1941	0.6101	0.6417	-0.009
Mof_H 	H 	0.1879	0.6106	0.6021	0.05
Mof_H 	H 	0.2932	0.7541	0.4617	0.017
Mof_H 	H 	0.2934	0.7546	0.4637	0.013
Mof_O 	O 	0.82894	0.12126	0.5355	-0.483
Mof_O 	O 	0.78994	0.1607	0.53549	-0.477
Mof_C 	C 	0.80203	0.13423	0.54617	0.401
Mof_C 	C 	0.78529	0.11762	0.57474	-0.095
Mof_C 	C 	0.75514	0.12945	0.58664	-0.054
Mof_H 	H 	0.7448	0.148	0.576	0.058
Mof_H 	H 	0.6973	0.1166	0.645	0.056
Mof_C 	C 	0.7712	0.2439	0.4668	-0.028
Mof_H 	H 	0.7662	0.227	0.4494	0.02
Mof_C 	C 	0.7854	0.2583	0.4868	-0.016
Mof_H 	H 	0.6964	0.1446	0.6215	0.048
Mof_H 	H 	0.6941	0.1101	0.6417	-0.009
Mof_H 	H 	0.6879	0.1106	0.6021	0.051
Mof_H 	H 	0.7932	0.2541	0.4617	0.017
Mof_H 	H 	0.7934	0.2546	0.4637	0.013
Mof_O 	O 	0.82894	0.62126	0.0355	-0.485
Mof_O 	O 	0.78994	0.6607	0.03549	-0.478
Mof_C 	C 	0.80203	0.63423	0.04617	0.401
Mof_C 	C 	0.78529	0.61762	0.07474	-0.096
Mof_C 	C 	0.75514	0.62945	0.08664	-0.054
Mof_H 	H 	0.7448	0.648	0.076	0.058
Mof_H 	H 	0.6973	0.6166	0.145	0.056
Mof_C 	C 	0.7712	0.7439	0.9668	-0.052
Mof_H 	H 	0.7662	0.727	0.9494	0.03
Mof_C 	C 	0.7854	0.7583	0.9868	0.058
Mof_H 	H 	0.6964	0.6446	0.1215	0.047
Mof_H 	H 	0.6941	0.6101	0.1417	-0.009
Mof_H 	H 	0.6879	0.6106	0.1021	0.049
Mof_H 	H 	0.7932	0.7541	0.9617	0.007
Mof_H 	H 	0.7934	0.7546	0.9637	0.012
Mof_O 	O 	0.32894	0.87874	0.9645	-0.475
Mof_O 	O 	0.28994	0.8393	0.96451	-0.47
Mof_C 	C 	0.30203	0.86577	0.95383	0.4
Mof_C 	C 	0.28529	0.88238	0.92526	-0.091
Mof_C 	C 	0.25514	0.87055	0.91336	-0.056
Mof_H 	H 	0.2448	0.852	0.924	0.061
Mof_H 	H 	0.1973	0.8834	0.855	0.057
Mof_C 	C 	0.2712	0.7561	0.0332	-0.008
Mof_H 	H 	0.2662	0.773	0.0506	0.011
Mof_C 	C 	0.2854	0.7417	0.0132	-0.071
Mof_H 	H 	0.1964	0.8554	0.8785	0.048
Mof_H 	H 	0.1941	0.8899	0.8583	-0.009
Mof_H 	H 	0.1879	0.8894	0.8979	0.052
Mof_H 	H 	0.2932	0.7459	0.0383	0.026
Mof_H 	H 	0.2934	0.7454	0.0363	0.014
Mof_O 	O 	0.32894	0.37874	0.4645	-0.482
Mof_O 	O 	0.28994	0.3393	0.46451	-0.476
Mof_C 	C 	0.30203	0.36577	0.45383	0.401
Mof_C 	C 	0.28529	0.38238	0.42526	-0.095
Mof_C 	C 	0.25514	0.37055	0.41336	-0.054
Mof_H 	H 	0.2448	0.352	0.424	0.059
Mof_H 	H 	0.1973	0.3834	0.355	0.056
Mof_C 	C 	0.2712	0.2561	0.5332	-0.028
Mof_H 	H 	0.2662	0.273	0.5506	0.02
Mof_C 	C 	0.2854	0.2417	0.5132	-0.016
Mof_H 	H 	0.1964	0.3554	0.3785	0.048
Mof_H 	H 	0.1941	0.3899	0.3583	-0.009
Mof_H 	H 	0.1879	0.3894	0.3979	0.05
Mof_H 	H 	0.2932	0.2459	0.5383	0.017
Mof_H 	H 	0.2934	0.2454	0.5363	0.013
Mof_O 	O 	0.82894	0.87874	0.4645	-0.481
Mof_O 	O 	0.78994	0.8393	0.46451	-0.476
Mof_C 	C 	0.80203	0.86577	0.45383	0.401
Mof_C 	C 	0.78529	0.88238	0.42526	-0.093
Mof_C 	C 	0.75514	0.87055	0.41336	-0.055
Mof_H 	H 	0.7448	0.852	0.424	0.059
Mof_H 	H 	0.6973	0.8834	0.355	0.056
Mof_C 	C 	0.7712	0.7561	0.5332	-0.028
Mof_H 	H 	0.7662	0.773	0.5506	0.02
Mof_C 	C 	0.7854	0.7417	0.5132	-0.016
Mof_H 	H 	0.6964	0.8554	0.3785	0.048
Mof_H 	H 	0.6941	0.8899	0.3583	-0.009
Mof_H 	H 	0.6879	0.8894	0.3979	0.05
Mof_H 	H 	0.7932	0.7459	0.5383	0.017
Mof_H 	H 	0.7934	0.7454	0.5363	0.013
Mof_O 	O 	0.82894	0.37874	0.9645	-0.476
Mof_O 	O 	0.78994	0.3393	0.96451	-0.471
Mof_C 	C 	0.80203	0.36577	0.95383	0.4
Mof_C 	C 	0.78529	0.38238	0.92526	-0.092
Mof_C 	C 	0.75514	0.37055	0.91336	-0.055
Mof_H 	H 	0.7448	0.352	0.924	0.06
Mof_H 	H 	0.6973	0.3834	0.855	0.056
Mof_C 	C 	0.7712	0.2561	0.0332	-0.008
Mof_H 	H 	0.7662	0.273	0.0506	0.011
Mof_C 	C 	0.7854	0.2417	0.0132	-0.071
Mof_H 	H 	0.6964	0.3554	0.8785	0.048
Mof_H 	H 	0.6941	0.3899	0.8583	-0.009
Mof_H 	H 	0.6879	0.3894	0.8979	0.052
Mof_H 	H 	0.7932	0.2459	0.0383	0.026
Mof_H 	H 	0.7934	0.2454	0.0363	0.014
Mof_O 	O 	0.0355	0.67106	0.87874	-0.485
Mof_O 	O 	0.03549	0.71006	0.8393	-0.478
Mof_C 	C 	0.04617	0.69797	0.86577	0.401
Mof_C 	C 	0.07474	0.71471	0.88238	-0.095
Mof_C 	C 	0.08664	0.74486	0.87055	-0.055
Mof_H 	H 	0.076	0.7552	0.852	0.059
Mof_H 	H 	0.145	0.8027	0.8834	0.056
Mof_C 	C 	0.9668	0.7288	0.7561	-0.052
Mof_H 	H 	0.9494	0.7338	0.773	0.03
Mof_C 	C 	0.9868	0.7146	0.7417	0.058
Mof_H 	H 	0.1215	0.8036	0.8554	0.048
Mof_H 	H 	0.1417	0.8059	0.8899	-0.009
Mof_H 	H 	0.1021	0.8121	0.8894	0.049
Mof_H 	H 	0.9617	0.7068	0.7459	0.006
Mof_H 	H 	0.9637	0.7066	0.7454	0.012
Mof_O 	O 	0.0355	0.17106	0.37874	-0.486
Mof_O 	O 	0.03549	0.21006	0.3393	-0.478
Mof_C 	C 	0.04617	0.19797	0.36577	0.401
Mof_C 	C 	0.07474	0.21471	0.38238	-0.096
Mof_C 	C 	0.08664	0.24486	0.37055	-0.054
Mof_H 	H 	0.076	0.2552	0.352	0.058
Mof_H 	H 	0.145	0.3027	0.3834	0.056
Mof_C 	C 	0.9668	0.2288	0.2561	-0.052
Mof_H 	H 	0.9494	0.2338	0.273	0.03
Mof_C 	C 	0.9868	0.2146	0.2417	0.058
Mof_H 	H 	0.1215	0.3036	0.3554	0.047
Mof_H 	H 	0.1417	0.3059	0.3899	-0.009
Mof_H 	H 	0.1021	0.3121	0.3894	0.049
Mof_H 	H 	0.9617	0.2068	0.2459	0.006
Mof_H 	H 	0.9637	0.2066	0.2454	0.012
Mof_O 	O 	0.5355	0.67106	0.37874	-0.482
Mof_O 	O 	0.53549	0.71006	0.3393	-0.476
Mof_C 	C 	0.54617	0.69797	0.36577	0.401
Mof_C 	C 	0.57474	0.71471	0.38238	-0.095
Mof_C 	C 	0.58664	0.74486	0.37055	-0.054
Mof_H 	H 	0.576	0.7552	0.352	0.059
Mof_H 	H 	0.645	0.8027	0.3834	0.056
Mof_C 	C 	0.4668	0.7288	0.2561	-0.028
Mof_H 	H 	0.4494	0.7338	0.273	0.02
Mof_C 	C 	0.4868	0.7146	0.2417	-0.016
Mof_H 	H 	0.6215	0.8036	0.3554	0.048
Mof_H 	H 	0.6417	0.8059	0.3899	-0.009
Mof_H 	H 	0.6021	0.8121	0.3894	0.051
Mof_H 	H 	0.4617	0.7068	0.2459	0.017
Mof_H 	H 	0.4637	0.7066	0.2454	0.013
Mof_O 	O 	0.5355	0.17106	0.87874	-0.481
Mof_O 	O 	0.53549	0.21006	0.8393	-0.476
Mof_C 	C 	0.54617	0.19797	0.86577	0.401
Mof_C 	C 	0.57474	0.21471	0.88238	-0.094
Mof_C 	C 	0.58664	0.24486	0.87055	-0.055
Mof_H 	H 	0.576	0.2552	0.852	0.059
Mof_H 	H 	0.645	0.3027	0.8834	0.056
Mof_C 	C 	0.4668	0.2288	0.7561	-0.028
Mof_H 	H 	0.4494	0.2338	0.773	0.02
Mof_C 	C 	0.4868	0.2146	0.7417	-0.016
Mof_H 	H 	0.6215	0.3036	0.8554	0.048
Mof_H 	H 	0.6417	0.3059	0.8899	-0.009
Mof_H 	H 	0.6021	0.3121	0.8894	0.05
Mof_H 	H 	0.4617	0.2068	0.7459	0.017
Mof_H 	H 	0.4637	0.2066	0.7454	0.013
Mof_O 	O 	0.9645	0.67106	0.12126	-0.477
Mof_O 	O 	0.96451	0.71006	0.1607	-0.471
Mof_C 	C 	0.95383	0.69797	0.13423	0.4
Mof_C 	C 	0.92526	0.71471	0.11762	-0.093
Mof_C 	C 	0.91336	0.74486	0.12945	-0.055
Mof_H 	H 	0.924	0.7552	0.148	0.06
Mof_H 	H 	0.855	0.8027	0.1166	0.056
Mof_C 	C 	0.0332	0.7288	0.2439	-0.008
Mof_H 	H 	0.0506	0.7338	0.227	0.011
Mof_C 	C 	0.0132	0.7146	0.2583	-0.071
Mof_H 	H 	0.8785	0.8036	0.1446	0.048
Mof_H 	H 	0.8583	0.8059	0.1101	-0.009
Mof_H 	H 	0.8979	0.8121	0.1106	0.053
Mof_H 	H 	0.0383	0.7068	0.2541	0.026
Mof_H 	H 	0.0363	0.7066	0.2546	0.014
Mof_O 	O 	0.9645	0.17106	0.62126	-0.477
Mof_O 	O 	0.96451	0.21006	0.6607	-0.471
Mof_C 	C 	0.95383	0.19797	0.63423	0.4
Mof_C 	C 	0.92526	0.21471	0.61762	-0.092
Mof_C 	C 	0.91336	0.24486	0.62945	-0.055
Mof_H 	H 	0.924	0.2552	0.648	0.06
Mof_H 	H 	0.855	0.3027	0.6166	0.056
Mof_C 	C 	0.0332	0.2288	0.7439	-0.008
Mof_H 	H 	0.0506	0.2338	0.727	0.011
Mof_C 	C 	0.0132	0.2146	0.7583	-0.071
Mof_H 	H 	0.8785	0.3036	0.6446	0.048
Mof_H 	H 	0.8583	0.3059	0.6101	-0.009
Mof_H 	H 	0.8979	0.3121	0.6106	0.052
Mof_H 	H 	0.0383	0.2068	0.7541	0.026
Mof_H 	H 	0.0363	0.2066	0.7546	0.014
Mof_O 	O 	0.4645	0.67106	0.62126	-0.482
Mof_O 	O 	0.46451	0.71006	0.6607	-0.476
Mof_C 	C 	0.45383	0.69797	0.63423	0.401
Mof_C 	C 	0.42526	0.71471	0.61762	-0.095
Mof_C 	C 	0.41336	0.74486	0.62945	-0.054
Mof_H 	H 	0.424	0.7552	0.648	0.059
Mof_H 	H 	0.355	0.8027	0.6166	0.056
Mof_C 	C 	0.5332	0.7288	0.7439	-0.028
Mof_H 	H 	0.5506	0.7338	0.727	0.02
Mof_C 	C 	0.5132	0.7146	0.7583	-0.016
Mof_H 	H 	0.3785	0.8036	0.6446	0.048
Mof_H 	H 	0.3583	0.8059	0.6101	-0.009
Mof_H 	H 	0.3979	0.8121	0.6106	0.051
Mof_H 	H 	0.5383	0.7068	0.7541	0.017
Mof_H 	H 	0.5363	0.7066	0.7546	0.013
Mof_O 	O 	0.4645	0.17106	0.12126	-0.483
Mof_O 	O 	0.46451	0.21006	0.1607	-0.477
Mof_C 	C 	0.45383	0.19797	0.13423	0.401
Mof_C 	C 	0.42526	0.21471	0.11762	-0.096
Mof_C 	C 	0.41336	0.24486	0.12945	-0.054
Mof_H 	H 	0.424	0.2552	0.148	0.058
Mof_H 	H 	0.355	0.3027	0.1166	0.056
Mof_C 	C 	0.5332	0.2288	0.2439	-0.028
Mof_H 	H 	0.5506	0.2338	0.227	0.02
Mof_C 	C 	0.5132	0.2146	0.2583	-0.016
Mof_H 	H 	0.3785	0.3036	0.1446	0.048
Mof_H 	H 	0.3583	0.3059	0.1101	-0.009
Mof_H 	H 	0.3979	0.3121	0.1106	0.051
Mof_H 	H 	0.5383	0.2068	0.2541	0.017
Mof_H 	H 	0.5363	0.2066	0.2546	0.013
Mof_O 	O 	0.0355	0.32894	0.12126	-0.487
Mof_O 	O 	0.03549	0.28994	0.1607	-0.479
Mof_C 	C 	0.04617	0.30203	0.13423	0.401
Mof_C 	C 	0.07474	0.28529	0.11762	-0.097
Mof_C 	C 	0.08664	0.25514	0.12945	-0.054
Mof_H 	H 	0.076	0.2448	0.148	0.058
Mof_H 	H 	0.145	0.1973	0.1166	0.055
Mof_C 	C 	0.9668	0.2712	0.2439	-0.052
Mof_H 	H 	0.9494	0.2662	0.227	0.03
Mof_C 	C 	0.9868	0.2854	0.2583	0.058
Mof_H 	H 	0.1215	0.1964	0.1446	0.047
Mof_H 	H 	0.1417	0.1941	0.1101	-0.009
Mof_H 	H 	0.1021	0.1879	0.1106	0.049
Mof_H 	H 	0.9617	0.2932	0.2541	0.007
Mof_H 	H 	0.9637	0.2934	0.2546	0.012
Mof_O 	O 	0.0355	0.82894	0.62126	-0.485
Mof_O 	O 	0.03549	0.78994	0.6607	-0.478
Mof_C 	C 	0.04617	0.80203	0.63423	0.401
Mof_C 	C 	0.07474	0.78529	0.61762	-0.096
Mof_C 	C 	0.08664	0.75514	0.62945	-0.054
Mof_H 	H 	0.076	0.7448	0.648	0.058
Mof_H 	H 	0.145	0.6973	0.6166	0.056
Mof_C 	C 	0.9668	0.7712	0.7439	-0.052
Mof_H 	H 	0.9494	0.7662	0.727	0.03
Mof_C 	C 	0.9868	0.7854	0.7583	0.058
Mof_H 	H 	0.1215	0.6964	0.6446	0.047
Mof_H 	H 	0.1417	0.6941	0.6101	-0.009
Mof_H 	H 	0.1021	0.6879	0.6106	0.049
Mof_H 	H 	0.9617	0.7932	0.7541	0.007
Mof_H 	H 	0.9637	0.7934	0.7546	0.012
Mof_O 	O 	0.5355	0.32894	0.62126	-0.482
Mof_O 	O 	0.53549	0.28994	0.6607	-0.476
Mof_C 	C 	0.54617	0.30203	0.63423	0.401
Mof_C 	C 	0.57474	0.28529	0.61762	-0.095
Mof_C 	C 	0.58664	0.25514	0.62945	-0.054
Mof_H 	H 	0.576	0.2448	0.648	0.059
Mof_H 	H 	0.645	0.1973	0.6166	0.056
Mof_C 	C 	0.4668	0.2712	0.7439	-0.028
Mof_H 	H 	0.4494	0.2662	0.727	0.02
Mof_C 	C 	0.4868	0.2854	0.7583	-0.016
Mof_H 	H 	0.6215	0.1964	0.6446	0.048
Mof_H 	H 	0.6417	0.1941	0.6101	-0.009
Mof_H 	H 	0.6021	0.1879	0.6106	0.05
Mof_H 	H 	0.4617	0.2932	0.7541	0.017
Mof_H 	H 	0.4637	0.2934	0.7546	0.013
Mof_O 	O 	0.5355	0.82894	0.12126	-0.483
Mof_O 	O 	0.53549	0.78994	0.1607	-0.477
Mof_C 	C 	0.54617	0.80203	0.13423	0.401
Mof_C 	C 	0.57474	0.78529	0.11762	-0.095
Mof_C 	C 	0.58664	0.75514	0.12945	-0.054
Mof_H 	H 	0.576	0.7448	0.148	0.058
Mof_H 	H 	0.645	0.6973	0.1166	0.056
Mof_C 	C 	0.4668	0.7712	0.2439	-0.028
Mof_H 	H 	0.4494	0.7662	0.227	0.02
Mof_C 	C 	0.4868	0.7854	0.2583	-0.016
Mof_H 	H 	0.6215	0.6964	0.1446	0.048
Mof_H 	H 	0.6417	0.6941	0.1101	-0.009
Mof_H 	H 	0.6021	0.6879	0.1106	0.051
Mof_H 	H 	0.4617	0.7932	0.2541	0.017
Mof_H 	H 	0.4637	0.7934	0.2546	0.013
Mof_O 	O 	0.9645	0.32894	0.87874	-0.475
Mof_O 	O 	0.96451	0.28994	0.8393	-0.47
Mof_C 	C 	0.95383	0.30203	0.86577	0.4
Mof_C 	C 	0.92526	0.28529	0.88238	-0.091
Mof_C 	C 	0.91336	0.25514	0.87055	-0.056
Mof_H 	H 	0.924	0.2448	0.852	0.061
Mof_H 	H 	0.855	0.1973	0.8834	0.057
Mof_C 	C 	0.0332	0.2712	0.7561	-0.008
Mof_H 	H 	0.0506	0.2662	0.773	0.011
Mof_C 	C 	0.0132	0.2854	0.7417	-0.071
Mof_H 	H 	0.8785	0.1964	0.8554	0.048
Mof_H 	H 	0.8583	0.1941	0.8899	-0.009
Mof_H 	H 	0.8979	0.1879	0.8894	0.052
Mof_H 	H 	0.0383	0.2932	0.7459	0.026
Mof_H 	H 	0.0363	0.2934	0.7454	0.014
Mof_O 	O 	0.9645	0.82894	0.37874	-0.476
Mof_O 	O 	0.96451	0.78994	0.3393	-0.471
Mof_C 	C 	0.95383	0.80203	0.36577	0.4
Mof_C 	C 	0.92526	0.78529	0.38238	-0.092
Mof_C 	C 	0.91336	0.75514	0.37055	-0.055
Mof_H 	H 	0.924	0.7448	0.352	0.06
Mof_H 	H 	0.855	0.6973	0.3834	0.056
Mof_C 	C 	0.0332	0.7712	0.2561	-0.008
Mof_H 	H 	0.0506	0.7662	0.273	0.011
Mof_C 	C 	0.0132	0.7854	0.2417	-0.071
Mof_H 	H 	0.8785	0.6964	0.3554	0.048
Mof_H 	H 	0.8583	0.6941	0.3899	-0.009
Mof_H 	H 	0.8979	0.6879	0.3894	0.052
Mof_H 	H 	0.0383	0.7932	0.2459	0.026
Mof_H 	H 	0.0363	0.7934	0.2454	0.014
Mof_O 	O 	0.4645	0.32894	0.37874	-0.482
Mof_O 	O 	0.46451	0.28994	0.3393	-0.476
Mof_C 	C 	0.45383	0.30203	0.36577	0.401
Mof_C 	C 	0.42526	0.28529	0.38238	-0.095
Mof_C 	C 	0.41336	0.25514	0.37055	-0.054
Mof_H 	H 	0.424	0.2448	0.352	0.059
Mof_H 	H 	0.355	0.1973	0.3834	0.056
Mof_C 	C 	0.5332	0.2712	0.2561	-0.028
Mof_H 	H 	0.5506	0.2662	0.273	0.02
Mof_C 	C 	0.5132	0.2854	0.2417	-0.016
Mof_H 	H 	0.3785	0.1964	0.3554	0.048
Mof_H 	H 	0.3583	0.1941	0.3899	-0.009
Mof_H 	H 	0.3979	0.1879	0.3894	0.05
Mof_H 	H 	0.5383	0.2932	0.2459	0.017
Mof_H 	H 	0.5363	0.2934	0.2454	0.013
Mof_O 	O 	0.4645	0.82894	0.87874	-0.481
Mof_O 	O 	0.46451	0.78994	0.8393	-0.476
Mof_C 	C 	0.45383	0.80203	0.86577	0.401
Mof_C 	C 	0.42526	0.78529	0.88238	-0.093
Mof_C 	C 	0.41336	0.75514	0.87055	-0.055
Mof_H 	H 	0.424	0.7448	0.852	0.059
Mof_H 	H 	0.355	0.6973	0.8834	0.056
Mof_C 	C 	0.5332	0.7712	0.7561	-0.028
Mof_H 	H 	0.5506	0.7662	0.773	0.02
Mof_C 	C 	0.5132	0.7854	0.7417	-0.016
Mof_H 	H 	0.3785	0.6964	0.8554	0.048
Mof_H 	H 	0.3583	0.6941	0.8899	-0.009
Mof_H 	H 	0.3979	0.6879	0.8894	0.05
Mof_H 	H 	0.5383	0.7932	0.7459	0.017
Mof_H 	H 	0.5363	0.7934	0.7454	0.013
Mof_O 	O 	0.0355	0.87874	0.32894	-0.485
Mof_O 	O 	0.03549	0.8393	0.28994	-0.478
Mof_C 	C 	0.04617	0.86577	0.30203	0.401
Mof_C 	C 	0.07474	0.88238	0.28529	-0.095
Mof_C 	C 	0.08664	0.87055	0.25514	-0.055
Mof_H 	H 	0.076	0.852	0.2448	0.059
Mof_H 	H 	0.145	0.8834	0.1973	0.056
Mof_C 	C 	0.9668	0.7561	0.2712	-0.052
Mof_H 	H 	0.9494	0.773	0.2662	0.03
Mof_C 	C 	0.9868	0.7417	0.2854	0.058
Mof_H 	H 	0.1215	0.8554	0.1964	0.047
Mof_H 	H 	0.1417	0.8899	0.1941	-0.009
Mof_H 	H 	0.1021	0.8894	0.1879	0.048
Mof_H 	H 	0.9617	0.7459	0.2932	0.007
Mof_H 	H 	0.9637	0.7454	0.2934	0.012
Mof_O 	O 	0.0355	0.37874	0.82894	-0.485
Mof_O 	O 	0.03549	0.3393	0.78994	-0.478
Mof_C 	C 	0.04617	0.36577	0.80203	0.401
Mof_C 	C 	0.07474	0.38238	0.78529	-0.096
Mof_C 	C 	0.08664	0.37055	0.75514	-0.054
Mof_H 	H 	0.076	0.352	0.7448	0.058
Mof_H 	H 	0.145	0.3834	0.6973	0.056
Mof_C 	C 	0.9668	0.2561	0.7712	-0.052
Mof_H 	H 	0.9494	0.273	0.7662	0.03
Mof_C 	C 	0.9868	0.2417	0.7854	0.058
Mof_H 	H 	0.1215	0.3554	0.6964	0.047
Mof_H 	H 	0.1417	0.3899	0.6941	-0.009
Mof_H 	H 	0.1021	0.3894	0.6879	0.049
Mof_H 	H 	0.9617	0.2459	0.7932	0.007
Mof_H 	H 	0.9637	0.2454	0.7934	0.012
Mof_O 	O 	0.5355	0.87874	0.82894	-0.481
Mof_O 	O 	0.53549	0.8393	0.78994	-0.476
Mof_C 	C 	0.54617	0.86577	0.80203	0.401
Mof_C 	C 	0.57474	0.88238	0.78529	-0.093
Mof_C 	C 	0.58664	0.87055	0.75514	-0.055
Mof_H 	H 	0.576	0.852	0.7448	0.059
Mof_H 	H 	0.645	0.8834	0.6973	0.056
Mof_C 	C 	0.4668	0.7561	0.7712	-0.028
Mof_H 	H 	0.4494	0.773	0.7662	0.02
Mof_C 	C 	0.4868	0.7417	0.7854	-0.016
Mof_H 	H 	0.6215	0.8554	0.6964	0.048
Mof_H 	H 	0.6417	0.8899	0.6941	-0.009
Mof_H 	H 	0.6021	0.8894	0.6879	0.05
Mof_H 	H 	0.4617	0.7459	0.7932	0.017
Mof_H 	H 	0.4637	0.7454	0.7934	0.013
Mof_O 	O 	0.5355	0.37874	0.32894	-0.482
Mof_O 	O 	0.53549	0.3393	0.28994	-0.476
Mof_C 	C 	0.54617	0.36577	0.30203	0.401
Mof_C 	C 	0.57474	0.38238	0.28529	-0.095
Mof_C 	C 	0.58664	0.37055	0.25514	-0.054
Mof_H 	H 	0.576	0.352	0.2448	0.059
Mof_H 	H 	0.645	0.3834	0.1973	0.056
Mof_C 	C 	0.4668	0.2561	0.2712	-0.028
Mof_H 	H 	0.4494	0.273	0.2662	0.02
Mof_C 	C 	0.4868	0.2417	0.2854	-0.016
Mof_H 	H 	0.6215	0.3554	0.1964	0.048
Mof_H 	H 	0.6417	0.3899	0.1941	-0.009
Mof_H 	H 	0.6021	0.3894	0.1879	0.05
Mof_H 	H 	0.4617	0.2459	0.2932	0.017
Mof_H 	H 	0.4637	0.2454	0.2934	0.013
Mof_O 	O 	0.9645	0.12126	0.32894	-0.477
Mof_O 	O 	0.96451	0.1607	0.28994	-0.471
Mof_C 	C 	0.95383	0.13423	0.30203	0.4
Mof_C 	C 	0.92526	0.11762	0.28529	-0.093
Mof_C 	C 	0.91336	0.12945	0.25514	-0.055
Mof_H 	H 	0.924	0.148	0.2448	0.06
Mof_H 	H 	0.855	0.1166	0.1973	0.056
Mof_C 	C 	0.0332	0.2439	0.2712	-0.008
Mof_H 	H 	0.0506	0.227	0.2662	0.011
Mof_C 	C 	0.0132	0.2583	0.2854	-0.071
Mof_H 	H 	0.8785	0.1446	0.1964	0.048
Mof_H 	H 	0.8583	0.1101	0.1941	-0.009
Mof_H 	H 	0.8979	0.1106	0.1879	0.053
Mof_H 	H 	0.0383	0.2541	0.2932	0.026
Mof_H 	H 	0.0363	0.2546	0.2934	0.014
Mof_O 	O 	0.9645	0.62126	0.82894	-0.476
Mof_O 	O 	0.96451	0.6607	0.78994	-0.471
Mof_C 	C 	0.95383	0.63423	0.80203	0.4
Mof_C 	C 	0.92526	0.61762	0.78529	-0.092
Mof_C 	C 	0.91336	0.62945	0.75514	-0.055
Mof_H 	H 	0.924	0.648	0.7448	0.06
Mof_H 	H 	0.855	0.6166	0.6973	0.056
Mof_C 	C 	0.0332	0.7439	0.7712	-0.008
Mof_H 	H 	0.0506	0.727	0.7662	0.011
Mof_C 	C 	0.0132	0.7583	0.7854	-0.071
Mof_H 	H 	0.8785	0.6446	0.6964	0.048
Mof_H 	H 	0.8583	0.6101	0.6941	-0.009
Mof_H 	H 	0.8979	0.6106	0.6879	0.052
Mof_H 	H 	0.0383	0.7541	0.7932	0.026
Mof_H 	H 	0.0363	0.7546	0.7934	0.014
Mof_O 	O 	0.4645	0.12126	0.82894	-0.483
Mof_O 	O 	0.46451	0.1607	0.78994	-0.477
Mof_C 	C 	0.45383	0.13423	0.80203	0.401
Mof_C 	C 	0.42526	0.11762	0.78529	-0.095
Mof_C 	C 	0.41336	0.12945	0.75514	-0.054
Mof_H 	H 	0.424	0.148	0.7448	0.058
Mof_H 	H 	0.355	0.1166	0.6973	0.056
Mof_C 	C 	0.5332	0.2439	0.7712	-0.028
Mof_H 	H 	0.5506	0.227	0.7662	0.02
Mof_C 	C 	0.5132	0.2583	0.7854	-0.016
Mof_H 	H 	0.3785	0.1446	0.6964	0.048
Mof_H 	H 	0.3583	0.1101	0.6941	-0.009
Mof_H 	H 	0.3979	0.1106	0.6879	0.051
Mof_H 	H 	0.5383	0.2541	0.7932	0.017
Mof_H 	H 	0.5363	0.2546	0.7934	0.013
Mof_O 	O 	0.4645	0.62126	0.32894	-0.482
Mof_O 	O 	0.46451	0.6607	0.28994	-0.476
Mof_C 	C 	0.45383	0.63423	0.30203	0.401
Mof_C 	C 	0.42526	0.61762	0.28529	-0.095
Mof_C 	C 	0.41336	0.62945	0.25514	-0.054
Mof_H 	H 	0.424	0.648	0.2448	0.059
Mof_H 	H 	0.355	0.6166	0.1973	0.056
Mof_C 	C 	0.5332	0.7439	0.2712	-0.028
Mof_H 	H 	0.5506	0.727	0.2662	0.02
Mof_C 	C 	0.5132	0.7583	0.2854	-0.016
Mof_H 	H 	0.3785	0.6446	0.1964	0.048
Mof_H 	H 	0.3583	0.6101	0.1941	-0.009
Mof_H 	H 	0.3979	0.6106	0.1879	0.05
Mof_H 	H 	0.5383	0.7541	0.2932	0.017
Mof_H 	H 	0.5363	0.7546	0.2934	0.013
Mof_O 	O 	0.0355	0.12126	0.67106	-0.487
Mof_O 	O 	0.03549	0.1607	0.71006	-0.479
Mof_C 	C 	0.04617	0.13423	0.69797	0.401
Mof_C 	C 	0.07474	0.11762	0.71471	-0.097
Mof_C 	C 	0.08664	0.12945	0.74486	-0.054
Mof_H 	H 	0.076	0.148	0.7552	0.058
Mof_H 	H 	0.145	0.1166	0.8027	0.056
Mof_C 	C 	0.9668	0.2439	0.7288	-0.052
Mof_H 	H 	0.9494	0.227	0.7338	0.03
Mof_C 	C 	0.9868	0.2583	0.7146	0.058
Mof_H 	H 	0.1215	0.1446	0.8036	0.048
Mof_H 	H 	0.1417	0.1101	0.8059	-0.009
Mof_H 	H 	0.1021	0.1106	0.8121	0.05
Mof_H 	H 	0.9617	0.2541	0.7068	0.007
Mof_H 	H 	0.9637	0.2546	0.7066	0.012
Mof_O 	O 	0.0355	0.62126	0.17106	-0.486
Mof_O 	O 	0.03549	0.6607	0.21006	-0.478
Mof_C 	C 	0.04617	0.63423	0.19797	0.401
Mof_C 	C 	0.07474	0.61762	0.21471	-0.096
Mof_C 	C 	0.08664	0.62945	0.24486	-0.054
Mof_H 	H 	0.076	0.648	0.2552	0.058
Mof_H 	H 	0.145	0.6166	0.3027	0.056
Mof_C 	C 	0.9668	0.7439	0.2288	-0.052
Mof_H 	H 	0.9494	0.727	0.2338	0.03
Mof_C 	C 	0.9868	0.7583	0.2146	0.058
Mof_H 	H 	0.1215	0.6446	0.3036	0.047
Mof_H 	H 	0.1417	0.6101	0.3059	-0.009
Mof_H 	H 	0.1021	0.6106	0.3121	0.049
Mof_H 	H 	0.9617	0.7541	0.2068	0.007
Mof_H 	H 	0.9637	0.7546	0.2066	0.012
Mof_O 	O 	0.5355	0.12126	0.17106	-0.483
Mof_O 	O 	0.53549	0.1607	0.21006	-0.477
Mof_C 	C 	0.54617	0.13423	0.19797	0.401
Mof_C 	C 	0.57474	0.11762	0.21471	-0.096
Mof_C 	C 	0.58664	0.12945	0.24486	-0.054
Mof_H 	H 	0.576	0.148	0.2552	0.058
Mof_H 	H 	0.645	0.1166	0.3027	0.056
Mof_C 	C 	0.4668	0.2439	0.2288	-0.028
Mof_H 	H 	0.4494	0.227	0.2338	0.02
Mof_C 	C 	0.4868	0.2583	0.2146	-0.016
Mof_H 	H 	0.6215	0.1446	0.3036	0.048
Mof_H 	H 	0.6417	0.1101	0.3059	-0.009
Mof_H 	H 	0.6021	0.1106	0.3121	0.051
Mof_H 	H 	0.4617	0.2541	0.2068	0.017
Mof_H 	H 	0.4637	0.2546	0.2066	0.013
Mof_O 	O 	0.5355	0.62126	0.67106	-0.482
Mof_O 	O 	0.53549	0.6607	0.71006	-0.476
Mof_C 	C 	0.54617	0.63423	0.69797	0.401
Mof_C 	C 	0.57474	0.61762	0.71471	-0.095
Mof_C 	C 	0.58664	0.62945	0.74486	-0.054
Mof_H 	H 	0.576	0.648	0.7552	0.059
Mof_H 	H 	0.645	0.6166	0.8027	0.056
Mof_C 	C 	0.4668	0.7439	0.7288	-0.028
Mof_H 	H 	0.4494	0.727	0.7338	0.02
Mof_C 	C 	0.4868	0.7583	0.7146	-0.016
Mof_H 	H 	0.6215	0.6446	0.8036	0.048
Mof_H 	H 	0.6417	0.6101	0.8059	-0.009
Mof_H 	H 	0.6021	0.6106	0.8121	0.051
Mof_H 	H 	0.4617	0.7541	0.7068	0.017
Mof_H 	H 	0.4637	0.7546	0.7066	0.013
Mof_O 	O 	0.9645	0.87874	0.67106	-0.475
Mof_O 	O 	0.96451	0.8393	0.71006	-0.47
Mof_C 	C 	0.95383	0.86577	0.69797	0.4
Mof_C 	C 	0.92526	0.88238	0.71471	-0.091
Mof_C 	C 	0.91336	0.87055	0.74486	-0.056
Mof_H 	H 	0.924	0.852	0.7552	0.061
Mof_H 	H 	0.855	0.8834	0.8027	0.057
Mof_C 	C 	0.0332	0.7561	0.7288	-0.008
Mof_H 	H 	0.0506	0.773	0.7338	0.011
Mof_C 	C 	0.0132	0.7417	0.7146	-0.071
Mof_H 	H 	0.8785	0.8554	0.8036	0.048
Mof_H 	H 	0.8583	0.8899	0.8059	-0.009
Mof_H 	H 	0.8979	0.8894	0.8121	0.052
Mof_H 	H 	0.0383	0.7459	0.7068	0.026
Mof_H 	H 	0.0363	0.7454	0.7066	0.014
Mof_O 	O 	0.9645	0.37874	0.17106	-0.477
Mof_O 	O 	0.96451	0.3393	0.21006	-0.471
Mof_C 	C 	0.95383	0.36577	0.19797	0.4
Mof_C 	C 	0.92526	0.38238	0.21471	-0.092
Mof_C 	C 	0.91336	0.37055	0.24486	-0.055
Mof_H 	H 	0.924	0.352	0.2552	0.06
Mof_H 	H 	0.855	0.3834	0.3027	0.056
Mof_C 	C 	0.0332	0.2561	0.2288	-0.008
Mof_H 	H 	0.0506	0.273	0.2338	0.011
Mof_C 	C 	0.0132	0.2417	0.2146	-0.071
Mof_H 	H 	0.8785	0.3554	0.3036	0.048
Mof_H 	H 	0.8583	0.3899	0.3059	-0.009
Mof_H 	H 	0.8979	0.3894	0.3121	0.052
Mof_H 	H 	0.0383	0.2459	0.2068	0.026
Mof_H 	H 	0.0363	0.2454	0.2066	0.014
Mof_O 	O 	0.4645	0.87874	0.17106	-0.481
Mof_O 	O 	0.46451	0.8393	0.21006	-0.476
Mof_C 	C 	0.45383	0.86577	0.19797	0.401
Mof_C 	C 	0.42526	0.88238	0.21471	-0.093
Mof_C 	C 	0.41336	0.87055	0.24486	-0.055
Mof_H 	H 	0.424	0.852	0.2552	0.059
Mof_H 	H 	0.355	0.8834	0.3027	0.056
Mof_C 	C 	0.5332	0.7561	0.2288	-0.028
Mof_H 	H 	0.5506	0.773	0.2338	0.02
Mof_C 	C 	0.5132	0.7417	0.2146	-0.016
Mof_H 	H 	0.3785	0.8554	0.3036	0.048
Mof_H 	H 	0.3583	0.8899	0.3059	-0.009
Mof_H 	H 	0.3979	0.8894	0.3121	0.05
Mof_H 	H 	0.5383	0.7459	0.2068	0.017
Mof_H 	H 	0.5363	0.7454	0.2066	0.013
Mof_O 	O 	0.4645	0.37874	0.67106	-0.482
Mof_O 	O 	0.46451	0.3393	0.71006	-0.476
Mof_C 	C 	0.45383	0.36577	0.69797	0.401
Mof_C 	C 	0.42526	0.38238	0.71471	-0.095
Mof_C 	C 	0.41336	0.37055	0.74486	-0.054
Mof_H 	H 	0.424	0.352	0.7552	0.059
Mof_H 	H 	0.355	0.3834	0.8027	0.056
Mof_C 	C 	0.5332	0.2561	0.7288	-0.028
Mof_H 	H 	0.5506	0.273	0.7338	0.02
Mof_C 	C 	0.5132	0.2417	0.7146	-0.016
Mof_H 	H 	0.3785	0.3554	0.8036	0.048
Mof_H 	H 	0.3583	0.3899	0.8059	-0.009
Mof_H 	H 	0.3979	0.3894	0.8121	0.051
Mof_H 	H 	0.5383	0.2459	0.7068	0.017
Mof_H 	H 	0.5363	0.2454	0.7066	0.013
Mof_O 	O 	0.87874	0.67106	0.9645	-0.475
Mof_O 	O 	0.8393	0.71006	0.96451	-0.47
Mof_C 	C 	0.86577	0.69797	0.95383	0.4
Mof_C 	C 	0.88238	0.71471	0.92526	-0.091
Mof_C 	C 	0.87055	0.74486	0.91336	-0.056
Mof_H 	H 	0.852	0.7552	0.924	0.061
Mof_H 	H 	0.8834	0.8027	0.855	0.057
Mof_C 	C 	0.7561	0.7288	0.0332	-0.008
Mof_H 	H 	0.773	0.7338	0.0506	0.011
Mof_C 	C 	0.7417	0.7146	0.0132	-0.071
Mof_H 	H 	0.8554	0.8036	0.8785	0.048
Mof_H 	H 	0.8899	0.8059	0.8583	-0.009
Mof_H 	H 	0.8894	0.8121	0.8979	0.052
Mof_H 	H 	0.7459	0.7068	0.0383	0.026
Mof_H 	H 	0.7454	0.7066	0.0363	0.014
Mof_O 	O 	0.87874	0.17106	0.4645	-0.481
Mof_O 	O 	0.8393	0.21006	0.46451	-0.476
Mof_C 	C 	0.86577	0.19797	0.45383	0.401
Mof_C 	C 	0.88238	0.21471	0.42526	-0.093
Mof_C 	C 	0.87055	0.24486	0.41336	-0.055
Mof_H 	H 	0.852	0.2552	0.424	0.059
Mof_H 	H 	0.8834	0.3027	0.355	0.056
Mof_C 	C 	0.7561	0.2288	0.5332	-0.028
Mof_H 	H 	0.773	0.2338	0.5506	0.02
Mof_C 	C 	0.7417	0.2146	0.5132	-0.016
Mof_H 	H 	0.8554	0.3036	0.3785	0.048
Mof_H 	H 	0.8899	0.3059	0.3583	-0.009
Mof_H 	H 	0.8894	0.3121	0.3979	0.05
Mof_H 	H 	0.7459	0.2068	0.5383	0.017
Mof_H 	H 	0.7454	0.2066	0.5363	0.013
Mof_O 	O 	0.37874	0.67106	0.4645	-0.482
Mof_O 	O 	0.3393	0.71006	0.46451	-0.476
Mof_C 	C 	0.36577	0.69797	0.45383	0.401
Mof_C 	C 	0.38238	0.71471	0.42526	-0.095
Mof_C 	C 	0.37055	0.74486	0.41336	-0.054
Mof_H 	H 	0.352	0.7552	0.424	0.059
Mof_H 	H 	0.3834	0.8027	0.355	0.056
Mof_C 	C 	0.2561	0.7288	0.5332	-0.028
Mof_H 	H 	0.273	0.7338	0.5506	0.02
Mof_C 	C 	0.2417	0.7146	0.5132	-0.016
Mof_H 	H 	0.3554	0.8036	0.3785	0.048
Mof_H 	H 	0.3899	0.8059	0.3583	-0.009
Mof_H 	H 	0.3894	0.8121	0.3979	0.051
Mof_H 	H 	0.2459	0.7068	0.5383	0.017
Mof_H 	H 	0.2454	0.7066	0.5363	0.013
Mof_O 	O 	0.37874	0.17106	0.9645	-0.477
Mof_O 	O 	0.3393	0.21006	0.96451	-0.471
Mof_C 	C 	0.36577	0.19797	0.95383	0.4
Mof_C 	C 	0.38238	0.21471	0.92526	-0.092
Mof_C 	C 	0.37055	0.24486	0.91336	-0.055
Mof_H 	H 	0.352	0.2552	0.924	0.06
Mof_H 	H 	0.3834	0.3027	0.855	0.056
Mof_C 	C 	0.2561	0.2288	0.0332	-0.008
Mof_H 	H 	0.273	0.2338	0.0506	0.011
Mof_C 	C 	0.2417	0.2146	0.0132	-0.071
Mof_H 	H 	0.3554	0.3036	0.8785	0.048
Mof_H 	H 	0.3899	0.3059	0.8583	-0.009
Mof_H 	H 	0.3894	0.3121	0.8979	0.052
Mof_H 	H 	0.2459	0.2068	0.0383	0.026
Mof_H 	H 	0.2454	0.2066	0.0363	0.014
Mof_O 	O 	0.12126	0.67106	0.0355	-0.487
Mof_O 	O 	0.1607	0.71006	0.03549	-0.479
Mof_C 	C 	0.13423	0.69797	0.04617	0.401
Mof_C 	C 	0.11762	0.71471	0.07474	-0.097
Mof_C 	C 	0.12945	0.74486	0.08664	-0.054
Mof_H 	H 	0.148	0.7552	0.076	0.058
Mof_H 	H 	0.1166	0.8027	0.145	0.056
Mof_C 	C 	0.2439	0.7288	0.9668	-0.052
Mof_H 	H 	0.227	0.7338	0.9494	0.03
Mof_C 	C 	0.2583	0.7146	0.9868	0.058
Mof_H 	H 	0.1446	0.8036	0.1215	0.048
Mof_H 	H 	0.1101	0.8059	0.1417	-0.009
Mof_H 	H 	0.1106	0.8121	0.1021	0.05
Mof_H 	H 	0.2541	0.7068	0.9617	0.007
Mof_H 	H 	0.2546	0.7066	0.9637	0.012
Mof_O 	O 	0.12126	0.17106	0.5355	-0.483
Mof_O 	O 	0.1607	0.21006	0.53549	-0.477
Mof_C 	C 	0.13423	0.19797	0.54617	0.401
Mof_C 	C 	0.11762	0.21471	0.57474	-0.096
Mof_C 	C 	0.12945	0.24486	0.58664	-0.054
Mof_H 	H 	0.148	0.2552	0.576	0.058
Mof_H 	H 	0.1166	0.3027	0.645	0.056
Mof_C 	C 	0.2439	0.2288	0.4668	-0.028
Mof_H 	H 	0.227	0.2338	0.4494	0.02
Mof_C 	C 	0.2583	0.2146	0.4868	-0.016
Mof_H 	H 	0.1446	0.3036	0.6215	0.048
Mof_H 	H 	0.1101	0.3059	0.6417	-0.009
Mof_H 	H 	0.1106	0.3121	0.6021	0.051
Mof_H 	H 	0.2541	0.2068	0.4617	0.017
Mof_H 	H 	0.2546	0.2066	0.4637	0.013
Mof_O 	O 	0.62126	0.67106	0.5355	-0.482
Mof_O 	O 	0.6607	0.71006	0.53549	-0.476
Mof_C 	C 	0.63423	0.69797	0.54617	0.401
Mof_C 	C 	0.61762	0.71471	0.57474	-0.095
Mof_C 	C 	0.62945	0.74486	0.58664	-0.054
Mof_H 	H 	0.648	0.7552	0.576	0.059
Mof_H 	H 	0.6166	0.8027	0.645	0.056
Mof_C 	C 	0.7439	0.7288	0.4668	-0.028
Mof_H 	H 	0.727	0.7338	0.4494	0.02
Mof_C 	C 	0.7583	0.7146	0.4868	-0.016
Mof_H 	H 	0.6446	0.8036	0.6215	0.048
Mof_H 	H 	0.6101	0.8059	0.6417	-0.009
Mof_H 	H 	0.6106	0.8121	0.6021	0.051
Mof_H 	H 	0.7541	0.7068	0.4617	0.017
Mof_H 	H 	0.7546	0.7066	0.4637	0.013
Mof_O 	O 	0.62126	0.17106	0.0355	-0.486
Mof_O 	O 	0.6607	0.21006	0.03549	-0.478
Mof_C 	C 	0.63423	0.19797	0.04617	0.401
Mof_C 	C 	0.61762	0.21471	0.07474	-0.096
Mof_C 	C 	0.62945	0.24486	0.08664	-0.054
Mof_H 	H 	0.648	0.2552	0.076	0.058
Mof_H 	H 	0.6166	0.3027	0.145	0.056
Mof_C 	C 	0.7439	0.2288	0.9668	-0.052
Mof_H 	H 	0.727	0.2338	0.9494	0.03
Mof_C 	C 	0.7583	0.2146	0.9868	0.058
Mof_H 	H 	0.6446	0.3036	0.1215	0.047
Mof_H 	H 	0.6101	0.3059	0.1417	-0.009
Mof_H 	H 	0.6106	0.3121	0.1021	0.049
Mof_H 	H 	0.7541	0.2068	0.9617	0.007
Mof_H 	H 	0.7546	0.2066	0.9637	0.012
Mof_O 	O 	0.12126	0.32894	0.9645	-0.477
Mof_O 	O 	0.1607	0.28994	0.96451	-0.471
Mof_C 	C 	0.13423	0.30203	0.95383	0.4
Mof_C 	C 	0.11762	0.28529	0.92526	-0.093
Mof_C 	C 	0.12945	0.25514	0.91336	-0.055
Mof_H 	H 	0.148	0.2448	0.924	0.06
Mof_H 	H 	0.1166	0.1973	0.855	0.056
Mof_C 	C 	0.2439	0.2712	0.0332	-0.008
Mof_H 	H 	0.227	0.2662	0.0506	0.011
Mof_C 	C 	0.2583	0.2854	0.0132	-0.071
Mof_H 	H 	0.1446	0.1964	0.8785	0.048
Mof_H 	H 	0.1101	0.1941	0.8583	-0.009
Mof_H 	H 	0.1106	0.1879	0.8979	0.053
Mof_H 	H 	0.2541	0.2932	0.0383	0.026
Mof_H 	H 	0.2546	0.2934	0.0363	0.014
Mof_O 	O 	0.12126	0.82894	0.4645	-0.483
Mof_O 	O 	0.1607	0.78994	0.46451	-0.477
Mof_C 	C 	0.13423	0.80203	0.45383	0.401
Mof_C 	C 	0.11762	0.78529	0.42526	-0.095
Mof_C 	C 	0.12945	0.75514	0.41336	-0.054
Mof_H 	H 	0.148	0.7448	0.424	0.058
Mof_H 	H 	0.1166	0.6973	0.355	0.056
Mof_C 	C 	0.2439	0.7712	0.5332	-0.028
Mof_H 	H 	0.227	0.7662	0.5506	0.02
Mof_C 	C 	0.2583	0.7854	0.5132	-0.016
Mof_H 	H 	0.1446	0.6964	0.3785	0.048
Mof_H 	H 	0.1101	0.6941	0.3583	-0.009
Mof_H 	H 	0.1106	0.6879	0.3979	0.051
Mof_H 	H 	0.2541	0.7932	0.5383	0.017
Mof_H 	H 	0.2546	0.7934	0.5363	0.013
Mof_O 	O 	0.62126	0.32894	0.4645	-0.482
Mof_O 	O 	0.6607	0.28994	0.46451	-0.476
Mof_C 	C 	0.63423	0.30203	0.45383	0.401
Mof_C 	C 	0.61762	0.28529	0.42526	-0.095
Mof_C 	C 	0.62945	0.25514	0.41336	-0.054
Mof_H 	H 	0.648	0.2448	0.424	0.059
Mof_H 	H 	0.6166	0.1973	0.355	0.056
Mof_C 	C 	0.7439	0.2712	0.5332	-0.028
Mof_H 	H 	0.727	0.2662	0.5506	0.02
Mof_C 	C 	0.7583	0.2854	0.5132	-0.016
Mof_H 	H 	0.6446	0.1964	0.3785	0.048
Mof_H 	H 	0.6101	0.1941	0.3583	-0.009
Mof_H 	H 	0.6106	0.1879	0.3979	0.05
Mof_H 	H 	0.7541	0.2932	0.5383	0.017
Mof_H 	H 	0.7546	0.2934	0.5363	0.013
Mof_O 	O 	0.62126	0.82894	0.9645	-0.476
Mof_O 	O 	0.6607	0.78994	0.96451	-0.471
Mof_C 	C 	0.63423	0.80203	0.95383	0.4
Mof_C 	C 	0.61762	0.78529	0.92526	-0.092
Mof_C 	C 	0.62945	0.75514	0.91336	-0.055
Mof_H 	H 	0.648	0.7448	0.924	0.06
Mof_H 	H 	0.6166	0.6973	0.855	0.056
Mof_C 	C 	0.7439	0.7712	0.0332	-0.008
Mof_H 	H 	0.727	0.7662	0.0506	0.011
Mof_C 	C 	0.7583	0.7854	0.0132	-0.071
Mof_H 	H 	0.6446	0.6964	0.8785	0.048
Mof_H 	H 	0.6101	0.6941	0.8583	-0.009
Mof_H 	H 	0.6106	0.6879	0.8979	0.052
Mof_H 	H 	0.7541	0.7932	0.0383	0.026
Mof_H 	H 	0.7546	0.7934	0.0363	0.014
Mof_O 	O 	0.87874	0.32894	0.0355	-0.485
Mof_O 	O 	0.8393	0.28994	0.03549	-0.478
Mof_C 	C 	0.86577	0.30203	0.04617	0.401
Mof_C 	C 	0.88238	0.28529	0.07474	-0.095
Mof_C 	C 	0.87055	0.25514	0.08664	-0.055
Mof_H 	H 	0.852	0.2448	0.076	0.059
Mof_H 	H 	0.8834	0.1973	0.145	0.056
Mof_C 	C 	0.7561	0.2712	0.9668	-0.052
Mof_H 	H 	0.773	0.2662	0.9494	0.03
Mof_C 	C 	0.7417	0.2854	0.9868	0.058
Mof_H 	H 	0.8554	0.1964	0.1215	0.047
Mof_H 	H 	0.8899	0.1941	0.1417	-0.009
Mof_H 	H 	0.8894	0.1879	0.1021	0.048
Mof_H 	H 	0.7459	0.2932	0.9617	0.007
Mof_H 	H 	0.7454	0.2934	0.9637	0.012
Mof_O 	O 	0.87874	0.82894	0.5355	-0.481
Mof_O 	O 	0.8393	0.78994	0.53549	-0.476
Mof_C 	C 	0.86577	0.80203	0.54617	0.401
Mof_C 	C 	0.88238	0.78529	0.57474	-0.093
Mof_C 	C 	0.87055	0.75514	0.58664	-0.055
Mof_H 	H 	0.852	0.7448	0.576	0.059
Mof_H 	H 	0.8834	0.6973	0.645	0.056
Mof_C 	C 	0.7561	0.7712	0.4668	-0.028
Mof_H 	H 	0.773	0.7662	0.4494	0.02
Mof_C 	C 	0.7417	0.7854	0.4868	-0.016
Mof_H 	H 	0.8554	0.6964	0.6215	0.048
Mof_H 	H 	0.8899	0.6941	0.6417	-0.009
Mof_H 	H 	0.8894	0.6879	0.6021	0.05
Mof_H 	H 	0.7459	0.7932	0.4617	0.017
Mof_H 	H 	0.7454	0.7934	0.4637	0.013
Mof_O 	O 	0.37874	0.32894	0.5355	-0.482
Mof_O 	O 	0.3393	0.28994	0.53549	-0.476
Mof_C 	C 	0.36577	0.30203	0.54617	0.401
Mof_C 	C 	0.38238	0.28529	0.57474	-0.095
Mof_C 	C 	0.37055	0.25514	0.58664	-0.054
Mof_H 	H 	0.352	0.2448	0.576	0.059
Mof_H 	H 	0.3834	0.1973	0.645	0.056
Mof_C 	C 	0.2561	0.2712	0.4668	-0.028
Mof_H 	H 	0.273	0.2662	0.4494	0.02
Mof_C 	C 	0.2417	0.2854	0.4868	-0.016
Mof_H 	H 	0.3554	0.1964	0.6215	0.048
Mof_H 	H 	0.3899	0.1941	0.6417	-0.009
Mof_H 	H 	0.3894	0.1879	0.6021	0.05
Mof_H 	H 	0.2459	0.2932	0.4617	0.017
Mof_H 	H 	0.2454	0.2934	0.4637	0.013
Mof_O 	O 	0.37874	0.82894	0.0355	-0.485
Mof_O 	O 	0.3393	0.78994	0.03549	-0.478
Mof_C 	C 	0.36577	0.80203	0.04617	0.401
Mof_C 	C 	0.38238	0.78529	0.07474	-0.096
Mof_C 	C 	0.37055	0.75514	0.08664	-0.054
Mof_H 	H 	0.352	0.7448	0.076	0.058
Mof_H 	H 	0.3834	0.6973	0.145	0.056
Mof_C 	C 	0.2561	0.7712	0.9668	-0.052
Mof_H 	H 	0.273	0.7662	0.9494	0.03
Mof_C 	C 	0.2417	0.7854	0.9868	0.058
Mof_H 	H 	0.3554	0.6964	0.1215	0.047
Mof_H 	H 	0.3899	0.6941	0.1417	-0.009
Mof_H 	H 	0.3894	0.6879	0.1021	0.049
Mof_H 	H 	0.2459	0.7932	0.9617	0.007
Mof_H 	H 	0.2454	0.7934	0.9637	0.012
Mof_O 	O 	0.67106	0.0355	0.12126	-0.487
Mof_O 	O 	0.71006	0.03549	0.1607	-0.479
Mof_C 	C 	0.69797	0.04617	0.13423	0.401
Mof_C 	C 	0.71471	0.07474	0.11762	-0.097
Mof_C 	C 	0.74486	0.08664	0.12945	-0.054
Mof_H 	H 	0.7552	0.076	0.148	0.058
Mof_H 	H 	0.8027	0.145	0.1166	0.056
Mof_C 	C 	0.7288	0.9668	0.2439	-0.052
Mof_H 	H 	0.7338	0.9494	0.227	0.03
Mof_C 	C 	0.7146	0.9868	0.2583	0.058
Mof_H 	H 	0.8036	0.1215	0.1446	0.048
Mof_H 	H 	0.8059	0.1417	0.1101	-0.009
Mof_H 	H 	0.8121	0.1021	0.1106	0.05
Mof_H 	H 	0.7068	0.9617	0.2541	0.007
Mof_H 	H 	0.7066	0.9637	0.2546	0.012
Mof_O 	O 	0.67106	0.5355	0.62126	-0.482
Mof_O 	O 	0.71006	0.53549	0.6607	-0.476
Mof_C 	C 	0.69797	0.54617	0.63423	0.401
Mof_C 	C 	0.71471	0.57474	0.61762	-0.095
Mof_C 	C 	0.74486	0.58664	0.62945	-0.054
Mof_H 	H 	0.7552	0.576	0.648	0.059
Mof_H 	H 	0.8027	0.645	0.6166	0.056
Mof_C 	C 	0.7288	0.4668	0.7439	-0.028
Mof_H 	H 	0.7338	0.4494	0.727	0.02
Mof_C 	C 	0.7146	0.4868	0.7583	-0.016
Mof_H 	H 	0.8036	0.6215	0.6446	0.048
Mof_H 	H 	0.8059	0.6417	0.6101	-0.009
Mof_H 	H 	0.8121	0.6021	0.6106	0.051
Mof_H 	H 	0.7068	0.4617	0.7541	0.017
Mof_H 	H 	0.7066	0.4637	0.7546	0.013
Mof_O 	O 	0.17106	0.0355	0.62126	-0.486
Mof_O 	O 	0.21006	0.03549	0.6607	-0.478
Mof_C 	C 	0.19797	0.04617	0.63423	0.401
Mof_C 	C 	0.21471	0.07474	0.61762	-0.096
Mof_C 	C 	0.24486	0.08664	0.62945	-0.054
Mof_H 	H 	0.2552	0.076	0.648	0.058
Mof_H 	H 	0.3027	0.145	0.6166	0.056
Mof_C 	C 	0.2288	0.9668	0.7439	-0.052
Mof_H 	H 	0.2338	0.9494	0.727	0.03
Mof_C 	C 	0.2146	0.9868	0.7583	0.058
Mof_H 	H 	0.3036	0.1215	0.6446	0.047
Mof_H 	H 	0.3059	0.1417	0.6101	-0.009
Mof_H 	H 	0.3121	0.1021	0.6106	0.049
Mof_H 	H 	0.2068	0.9617	0.7541	0.007
Mof_H 	H 	0.2066	0.9637	0.7546	0.012
Mof_O 	O 	0.17106	0.5355	0.12126	-0.483
Mof_O 	O 	0.21006	0.53549	0.1607	-0.477
Mof_C 	C 	0.19797	0.54617	0.13423	0.401
Mof_C 	C 	0.21471	0.57474	0.11762	-0.096
Mof_C 	C 	0.24486	0.58664	0.12945	-0.054
Mof_H 	H 	0.2552	0.576	0.148	0.058
Mof_H 	H 	0.3027	0.645	0.1166	0.056
Mof_C 	C 	0.2288	0.4668	0.2439	-0.028
Mof_H 	H 	0.2338	0.4494	0.227	0.02
Mof_C 	C 	0.2146	0.4868	0.2583	-0.016
Mof_H 	H 	0.3036	0.6215	0.1446	0.048
Mof_H 	H 	0.3059	0.6417	0.1101	-0.009
Mof_H 	H 	0.3121	0.6021	0.1106	0.051
Mof_H 	H 	0.2068	0.4617	0.2541	0.017
Mof_H 	H 	0.2066	0.4637	0.2546	0.013
Mof_O 	O 	0.67106	0.9645	0.87874	-0.475
Mof_O 	O 	0.71006	0.96451	0.8393	-0.47
Mof_C 	C 	0.69797	0.95383	0.86577	0.4
Mof_C 	C 	0.71471	0.92526	0.88238	-0.091
Mof_C 	C 	0.74486	0.91336	0.87055	-0.056
Mof_H 	H 	0.7552	0.924	0.852	0.061
Mof_H 	H 	0.8027	0.855	0.8834	0.057
Mof_C 	C 	0.7288	0.0332	0.7561	-0.008
Mof_H 	H 	0.7338	0.0506	0.773	0.011
Mof_C 	C 	0.7146	0.0132	0.7417	-0.071
Mof_H 	H 	0.8036	0.8785	0.8554	0.048
Mof_H 	H 	0.8059	0.8583	0.8899	-0.009
Mof_H 	H 	0.8121	0.8979	0.8894	0.052
Mof_H 	H 	0.7068	0.0383	0.7459	0.026
Mof_H 	H 	0.7066	0.0363	0.7454	0.014
Mof_O 	O 	0.67106	0.4645	0.37874	-0.482
Mof_O 	O 	0.71006	0.46451	0.3393	-0.476
Mof_C 	C 	0.69797	0.45383	0.36577	0.401
Mof_C 	C 	0.71471	0.42526	0.38238	-0.095
Mof_C 	C 	0.74486	0.41336	0.37055	-0.054
Mof_H 	H 	0.7552	0.424	0.352	0.059
Mof_H 	H 	0.8027	0.355	0.3834	0.056
Mof_C 	C 	0.7288	0.5332	0.2561	-0.028
Mof_H 	H 	0.7338	0.5506	0.273	0.02
Mof_C 	C 	0.7146	0.5132	0.2417	-0.016
Mof_H 	H 	0.8036	0.3785	0.3554	0.048
Mof_H 	H 	0.8059	0.3583	0.3899	-0.009
Mof_H 	H 	0.8121	0.3979	0.3894	0.051
Mof_H 	H 	0.7068	0.5383	0.2459	0.017
Mof_H 	H 	0.7066	0.5363	0.2454	0.013
Mof_O 	O 	0.17106	0.9645	0.37874	-0.477
Mof_O 	O 	0.21006	0.96451	0.3393	-0.471
Mof_C 	C 	0.19797	0.95383	0.36577	0.4
Mof_C 	C 	0.21471	0.92526	0.38238	-0.092
Mof_C 	C 	0.24486	0.91336	0.37055	-0.055
Mof_H 	H 	0.2552	0.924	0.352	0.06
Mof_H 	H 	0.3027	0.855	0.3834	0.056
Mof_C 	C 	0.2288	0.0332	0.2561	-0.008
Mof_H 	H 	0.2338	0.0506	0.273	0.011
Mof_C 	C 	0.2146	0.0132	0.2417	-0.071
Mof_H 	H 	0.3036	0.8785	0.3554	0.048
Mof_H 	H 	0.3059	0.8583	0.3899	-0.009
Mof_H 	H 	0.3121	0.8979	0.3894	0.052
Mof_H 	H 	0.2068	0.0383	0.2459	0.026
Mof_H 	H 	0.2066	0.0363	0.2454	0.014
Mof_O 	O 	0.17106	0.4645	0.87874	-0.481
Mof_O 	O 	0.21006	0.46451	0.8393	-0.476
Mof_C 	C 	0.19797	0.45383	0.86577	0.401
Mof_C 	C 	0.21471	0.42526	0.88238	-0.093
Mof_C 	C 	0.24486	0.41336	0.87055	-0.055
Mof_H 	H 	0.2552	0.424	0.852	0.059
Mof_H 	H 	0.3027	0.355	0.8834	0.056
Mof_C 	C 	0.2288	0.5332	0.7561	-0.028
Mof_H 	H 	0.2338	0.5506	0.773	0.02
Mof_C 	C 	0.2146	0.5132	0.7417	-0.016
Mof_H 	H 	0.3036	0.3785	0.8554	0.048
Mof_H 	H 	0.3059	0.3583	0.8899	-0.009
Mof_H 	H 	0.3121	0.3979	0.8894	0.05
Mof_H 	H 	0.2068	0.5383	0.7459	0.017
Mof_H 	H 	0.2066	0.5363	0.7454	0.013
Mof_O 	O 	0.32894	0.0355	0.87874	-0.485
Mof_O 	O 	0.28994	0.03549	0.8393	-0.478
Mof_C 	C 	0.30203	0.04617	0.86577	0.401
Mof_C 	C 	0.28529	0.07474	0.88238	-0.095
Mof_C 	C 	0.25514	0.08664	0.87055	-0.055
Mof_H 	H 	0.2448	0.076	0.852	0.059
Mof_H 	H 	0.1973	0.145	0.8834	0.056
Mof_C 	C 	0.2712	0.9668	0.7561	-0.052
Mof_H 	H 	0.2662	0.9494	0.773	0.03
Mof_C 	C 	0.2854	0.9868	0.7417	0.058
Mof_H 	H 	0.1964	0.1215	0.8554	0.047
Mof_H 	H 	0.1941	0.1417	0.8899	-0.009
Mof_H 	H 	0.1879	0.1021	0.8894	0.048
Mof_H 	H 	0.2932	0.9617	0.7459	0.007
Mof_H 	H 	0.2934	0.9637	0.7454	0.012
Mof_O 	O 	0.32894	0.5355	0.37874	-0.482
Mof_O 	O 	0.28994	0.53549	0.3393	-0.476
Mof_C 	C 	0.30203	0.54617	0.36577	0.401
Mof_C 	C 	0.28529	0.57474	0.38238	-0.095
Mof_C 	C 	0.25514	0.58664	0.37055	-0.054
Mof_H 	H 	0.2448	0.576	0.352	0.059
Mof_H 	H 	0.1973	0.645	0.3834	0.056
Mof_C 	C 	0.2712	0.4668	0.2561	-0.028
Mof_H 	H 	0.2662	0.4494	0.273	0.02
Mof_C 	C 	0.2854	0.4868	0.2417	-0.016
Mof_H 	H 	0.1964	0.6215	0.3554	0.048
Mof_H 	H 	0.1941	0.6417	0.3899	-0.009
Mof_H 	H 	0.1879	0.6021	0.3894	0.05
Mof_H 	H 	0.2932	0.4617	0.2459	0.017
Mof_H 	H 	0.2934	0.4637	0.2454	0.013
Mof_O 	O 	0.82894	0.0355	0.37874	-0.485
Mof_O 	O 	0.78994	0.03549	0.3393	-0.478
Mof_C 	C 	0.80203	0.04617	0.36577	0.401
Mof_C 	C 	0.78529	0.07474	0.38238	-0.096
Mof_C 	C 	0.75514	0.08664	0.37055	-0.054
Mof_H 	H 	0.7448	0.076	0.352	0.058
Mof_H 	H 	0.6973	0.145	0.3834	0.056
Mof_C 	C 	0.7712	0.9668	0.2561	-0.052
Mof_H 	H 	0.7662	0.9494	0.273	0.03
Mof_C 	C 	0.7854	0.9868	0.2417	0.058
Mof_H 	H 	0.6964	0.1215	0.3554	0.047
Mof_H 	H 	0.6941	0.1417	0.3899	-0.009
Mof_H 	H 	0.6879	0.1021	0.3894	0.049
Mof_H 	H 	0.7932	0.9617	0.2459	0.007
Mof_H 	H 	0.7934	0.9637	0.2454	0.012
Mof_O 	O 	0.82894	0.5355	0.87874	-0.481
Mof_O 	O 	0.78994	0.53549	0.8393	-0.476
Mof_C 	C 	0.80203	0.54617	0.86577	0.401
Mof_C 	C 	0.78529	0.57474	0.88238	-0.093
Mof_C 	C 	0.75514	0.58664	0.87055	-0.055
Mof_H 	H 	0.7448	0.576	0.852	0.059
Mof_H 	H 	0.6973	0.645	0.8834	0.056
Mof_C 	C 	0.7712	0.4668	0.7561	-0.028
Mof_H 	H 	0.7662	0.4494	0.773	0.02
Mof_C 	C 	0.7854	0.4868	0.7417	-0.016
Mof_H 	H 	0.6964	0.6215	0.8554	0.048
Mof_H 	H 	0.6941	0.6417	0.8899	-0.009
Mof_H 	H 	0.6879	0.6021	0.8894	0.05
Mof_H 	H 	0.7932	0.4617	0.7459	0.017
Mof_H 	H 	0.7934	0.4637	0.7454	0.013
Mof_O 	O 	0.32894	0.9645	0.12126	-0.477
Mof_O 	O 	0.28994	0.96451	0.1607	-0.471
Mof_C 	C 	0.30203	0.95383	0.13423	0.4
Mof_C 	C 	0.28529	0.92526	0.11762	-0.093
Mof_C 	C 	0.25514	0.91336	0.12945	-0.055
Mof_H 	H 	0.2448	0.924	0.148	0.06
Mof_H 	H 	0.1973	0.855	0.1166	0.056
Mof_C 	C 	0.2712	0.0332	0.2439	-0.008
Mof_H 	H 	0.2662	0.0506	0.227	0.011
Mof_C 	C 	0.2854	0.0132	0.2583	-0.071
Mof_H 	H 	0.1964	0.8785	0.1446	0.048
Mof_H 	H 	0.1941	0.8583	0.1101	-0.009
Mof_H 	H 	0.1879	0.8979	0.1106	0.053
Mof_H 	H 	0.2932	0.0383	0.2541	0.026
Mof_H 	H 	0.2934	0.0363	0.2546	0.014
Mof_O 	O 	0.32894	0.4645	0.62126	-0.482
Mof_O 	O 	0.28994	0.46451	0.6607	-0.476
Mof_C 	C 	0.30203	0.45383	0.63423	0.401
Mof_C 	C 	0.28529	0.42526	0.61762	-0.095
Mof_C 	C 	0.25514	0.41336	0.62945	-0.054
Mof_H 	H 	0.2448	0.424	0.648	0.059
Mof_H 	H 	0.1973	0.355	0.6166	0.056
Mof_C 	C 	0.2712	0.5332	0.7439	-0.028
Mof_H 	H 	0.2662	0.5506	0.727	0.02
Mof_C 	C 	0.2854	0.5132	0.7583	-0.016
Mof_H 	H 	0.1964	0.3785	0.6446	0.048
Mof_H 	H 	0.1941	0.3583	0.6101	-0.009
Mof_H 	H 	0.1879	0.3979	0.6106	0.05
Mof_H 	H 	0.2932	0.5383	0.7541	0.017
Mof_H 	H 	0.2934	0.5363	0.7546	0.013
Mof_O 	O 	0.82894	0.9645	0.62126	-0.476
Mof_O 	O 	0.78994	0.96451	0.6607	-0.471
Mof_C 	C 	0.80203	0.95383	0.63423	0.4
Mof_C 	C 	0.78529	0.92526	0.61762	-0.092
Mof_C 	C 	0.75514	0.91336	0.62945	-0.055
Mof_H 	H 	0.7448	0.924	0.648	0.06
Mof_H 	H 	0.6973	0.855	0.6166	0.056
Mof_C 	C 	0.7712	0.0332	0.7439	-0.008
Mof_H 	H 	0.7662	0.0506	0.727	0.011
Mof_C 	C 	0.7854	0.0132	0.7583	-0.071
Mof_H 	H 	0.6964	0.8785	0.6446	0.048
Mof_H 	H 	0.6941	0.8583	0.6101	-0.009
Mof_H 	H 	0.6879	0.8979	0.6106	0.052
Mof_H 	H 	0.7932	0.0383	0.7541	0.026
Mof_H 	H 	0.7934	0.0363	0.7546	0.014
Mof_O 	O 	0.82894	0.4645	0.12126	-0.483
Mof_O 	O 	0.78994	0.46451	0.1607	-0.477
Mof_C 	C 	0.80203	0.45383	0.13423	0.401
Mof_C 	C 	0.78529	0.42526	0.11762	-0.095
Mof_C 	C 	0.75514	0.41336	0.12945	-0.054
Mof_H 	H 	0.7448	0.424	0.148	0.058
Mof_H 	H 	0.6973	0.355	0.1166	0.056
Mof_C 	C 	0.7712	0.5332	0.2439	-0.028
Mof_H 	H 	0.7662	0.5506	0.227	0.02
Mof_C 	C 	0.7854	0.5132	0.2583	-0.016
Mof_H 	H 	0.6964	0.3785	0.1446	0.048
Mof_H 	H 	0.6941	0.3583	0.1101	-0.009
Mof_H 	H 	0.6879	0.3979	0.1106	0.051
Mof_H 	H 	0.7932	0.5383	0.2541	0.017
Mof_H 	H 	0.7934	0.5363	0.2546	0.013
Mof_O 	O 	0.12126	0.9645	0.32894	-0.477
Mof_O 	O 	0.1607	0.96451	0.28994	-0.471
Mof_C 	C 	0.13423	0.95383	0.30203	0.4
Mof_C 	C 	0.11762	0.92526	0.28529	-0.093
Mof_C 	C 	0.12945	0.91336	0.25514	-0.055
Mof_H 	H 	0.148	0.924	0.2448	0.06
Mof_H 	H 	0.1166	0.855	0.1973	0.056
Mof_C 	C 	0.2439	0.0332	0.2712	-0.008
Mof_H 	H 	0.227	0.0506	0.2662	0.011
Mof_C 	C 	0.2583	0.0132	0.2854	-0.071
Mof_H 	H 	0.1446	0.8785	0.1964	0.048
Mof_H 	H 	0.1101	0.8583	0.1941	-0.009
Mof_H 	H 	0.1106	0.8979	0.1879	0.053
Mof_H 	H 	0.2541	0.0383	0.2932	0.026
Mof_H 	H 	0.2546	0.0363	0.2934	0.014
Mof_O 	O 	0.12126	0.4645	0.82894	-0.483
Mof_O 	O 	0.1607	0.46451	0.78994	-0.477
Mof_C 	C 	0.13423	0.45383	0.80203	0.401
Mof_C 	C 	0.11762	0.42526	0.78529	-0.095
Mof_C 	C 	0.12945	0.41336	0.75514	-0.054
Mof_H 	H 	0.148	0.424	0.7448	0.058
Mof_H 	H 	0.1166	0.355	0.6973	0.056
Mof_C 	C 	0.2439	0.5332	0.7712	-0.028
Mof_H 	H 	0.227	0.5506	0.7662	0.02
Mof_C 	C 	0.2583	0.5132	0.7854	-0.016
Mof_H 	H 	0.1446	0.3785	0.6964	0.048
Mof_H 	H 	0.1101	0.3583	0.6941	-0.009
Mof_H 	H 	0.1106	0.3979	0.6879	0.051
Mof_H 	H 	0.2541	0.5383	0.7932	0.017
Mof_H 	H 	0.2546	0.5363	0.7934	0.013
Mof_O 	O 	0.62126	0.9645	0.82894	-0.476
Mof_O 	O 	0.6607	0.96451	0.78994	-0.471
Mof_C 	C 	0.63423	0.95383	0.80203	0.4
Mof_C 	C 	0.61762	0.92526	0.78529	-0.092
Mof_C 	C 	0.62945	0.91336	0.75514	-0.055
Mof_H 	H 	0.648	0.924	0.7448	0.06
Mof_H 	H 	0.6166	0.855	0.6973	0.056
Mof_C 	C 	0.7439	0.0332	0.7712	-0.008
Mof_H 	H 	0.727	0.0506	0.7662	0.011
Mof_C 	C 	0.7583	0.0132	0.7854	-0.071
Mof_H 	H 	0.6446	0.8785	0.6964	0.048
Mof_H 	H 	0.6101	0.8583	0.6941	-0.009
Mof_H 	H 	0.6106	0.8979	0.6879	0.052
Mof_H 	H 	0.7541	0.0383	0.7932	0.026
Mof_H 	H 	0.7546	0.0363	0.7934	0.014
Mof_O 	O 	0.62126	0.4645	0.32894	-0.482
Mof_O 	O 	0.6607	0.46451	0.28994	-0.476
Mof_C 	C 	0.63423	0.45383	0.30203	0.401
Mof_C 	C 	0.61762	0.42526	0.28529	-0.095
Mof_C 	C 	0.62945	0.41336	0.25514	-0.054
Mof_H 	H 	0.648	0.424	0.2448	0.059
Mof_H 	H 	0.6166	0.355	0.1973	0.056
Mof_C 	C 	0.7439	0.5332	0.2712	-0.028
Mof_H 	H 	0.727	0.5506	0.2662	0.02
Mof_C 	C 	0.7583	0.5132	0.2854	-0.016
Mof_H 	H 	0.6446	0.3785	0.1964	0.048
Mof_H 	H 	0.6101	0.3583	0.1941	-0.009
Mof_H 	H 	0.6106	0.3979	0.1879	0.05
Mof_H 	H 	0.7541	0.5383	0.2932	0.017
Mof_H 	H 	0.7546	0.5363	0.2934	0.013
Mof_O 	O 	0.87874	0.0355	0.32894	-0.485
Mof_O 	O 	0.8393	0.03549	0.28994	-0.478
Mof_C 	C 	0.86577	0.04617	0.30203	0.401
Mof_C 	C 	0.88238	0.07474	0.28529	-0.095
Mof_C 	C 	0.87055	0.08664	0.25514	-0.055
Mof_H 	H 	0.852	0.076	0.2448	0.059
Mof_H 	H 	0.8834	0.145	0.1973	0.056
Mof_C 	C 	0.7561	0.9668	0.2712	-0.052
Mof_H 	H 	0.773	0.9494	0.2662	0.03
Mof_C 	C 	0.7417	0.9868	0.2854	0.058
Mof_H 	H 	0.8554	0.1215	0.1964	0.047
Mof_H 	H 	0.8899	0.1417	0.1941	-0.009
Mof_H 	H 	0.8894	0.1021	0.1879	0.048
Mof_H 	H 	0.7459	0.9617	0.2932	0.007
Mof_H 	H 	0.7454	0.9637	0.2934	0.012
Mof_O 	O 	0.87874	0.5355	0.82894	-0.481
Mof_O 	O 	0.8393	0.53549	0.78994	-0.476
Mof_C 	C 	0.86577	0.54617	0.80203	0.401
Mof_C 	C 	0.88238	0.57474	0.78529	-0.093
Mof_C 	C 	0.87055	0.58664	0.75514	-0.055
Mof_H 	H 	0.852	0.576	0.7448	0.059
Mof_H 	H 	0.8834	0.645	0.6973	0.056
Mof_C 	C 	0.7561	0.4668	0.7712	-0.028
Mof_H 	H 	0.773	0.4494	0.7662	0.02
Mof_C 	C 	0.7417	0.4868	0.7854	-0.016
Mof_H 	H 	0.8554	0.6215	0.6964	0.048
Mof_H 	H 	0.8899	0.6417	0.6941	-0.009
Mof_H 	H 	0.8894	0.6021	0.6879	0.05
Mof_H 	H 	0.7459	0.4617	0.7932	0.017
Mof_H 	H 	0.7454	0.4637	0.7934	0.013
Mof_O 	O 	0.37874	0.0355	0.82894	-0.485
Mof_O 	O 	0.3393	0.03549	0.78994	-0.478
Mof_C 	C 	0.36577	0.04617	0.80203	0.401
Mof_C 	C 	0.38238	0.07474	0.78529	-0.096
Mof_C 	C 	0.37055	0.08664	0.75514	-0.054
Mof_H 	H 	0.352	0.076	0.7448	0.058
Mof_H 	H 	0.3834	0.145	0.6973	0.056
Mof_C 	C 	0.2561	0.9668	0.7712	-0.052
Mof_H 	H 	0.273	0.9494	0.7662	0.03
Mof_C 	C 	0.2417	0.9868	0.7854	0.058
Mof_H 	H 	0.3554	0.1215	0.6964	0.047
Mof_H 	H 	0.3899	0.1417	0.6941	-0.009
Mof_H 	H 	0.3894	0.1021	0.6879	0.049
Mof_H 	H 	0.2459	0.9617	0.7932	0.007
Mof_H 	H 	0.2454	0.9637	0.7934	0.012
Mof_O 	O 	0.37874	0.5355	0.32894	-0.482
Mof_O 	O 	0.3393	0.53549	0.28994	-0.476
Mof_C 	C 	0.36577	0.54617	0.30203	0.401
Mof_C 	C 	0.38238	0.57474	0.28529	-0.095
Mof_C 	C 	0.37055	0.58664	0.25514	-0.054
Mof_H 	H 	0.352	0.576	0.2448	0.059
Mof_H 	H 	0.3834	0.645	0.1973	0.056
Mof_C 	C 	0.2561	0.4668	0.2712	-0.028
Mof_H 	H 	0.273	0.4494	0.2662	0.02
Mof_C 	C 	0.2417	0.4868	0.2854	-0.016
Mof_H 	H 	0.3554	0.6215	0.1964	0.048
Mof_H 	H 	0.3899	0.6417	0.1941	-0.009
Mof_H 	H 	0.3894	0.6021	0.1879	0.05
Mof_H 	H 	0.2459	0.4617	0.2932	0.017
Mof_H 	H 	0.2454	0.4637	0.2934	0.013
Mof_O 	O 	0.87874	0.9645	0.67106	-0.475
Mof_O 	O 	0.8393	0.96451	0.71006	-0.47
Mof_C 	C 	0.86577	0.95383	0.69797	0.4
Mof_C 	C 	0.88238	0.92526	0.71471	-0.091
Mof_C 	C 	0.87055	0.91336	0.74486	-0.056
Mof_H 	H 	0.852	0.924	0.7552	0.061
Mof_H 	H 	0.8834	0.855	0.8027	0.057
Mof_C 	C 	0.7561	0.0332	0.7288	-0.008
Mof_H 	H 	0.773	0.0506	0.7338	0.011
Mof_C 	C 	0.7417	0.0132	0.7146	-0.071
Mof_H 	H 	0.8554	0.8785	0.8036	0.048
Mof_H 	H 	0.8899	0.8583	0.8059	-0.009
Mof_H 	H 	0.8894	0.8979	0.8121	0.052
Mof_H 	H 	0.7459	0.0383	0.7068	0.026
Mof_H 	H 	0.7454	0.0363	0.7066	0.014
Mof_O 	O 	0.87874	0.4645	0.17106	-0.481
Mof_O 	O 	0.8393	0.46451	0.21006	-0.476
Mof_C 	C 	0.86577	0.45383	0.19797	0.401
Mof_C 	C 	0.88238	0.42526	0.21471	-0.093
Mof_C 	C 	0.87055	0.41336	0.24486	-0.055
Mof_H 	H 	0.852	0.424	0.2552	0.059
Mof_H 	H 	0.8834	0.355	0.3027	0.056
Mof_C 	C 	0.7561	0.5332	0.2288	-0.028
Mof_H 	H 	0.773	0.5506	0.2338	0.02
Mof_C 	C 	0.7417	0.5132	0.2146	-0.016
Mof_H 	H 	0.8554	0.3785	0.3036	0.048
Mof_H 	H 	0.8899	0.3583	0.3059	-0.009
Mof_H 	H 	0.8894	0.3979	0.3121	0.05
Mof_H 	H 	0.7459	0.5383	0.2068	0.017
Mof_H 	H 	0.7454	0.5363	0.2066	0.013
Mof_O 	O 	0.37874	0.9645	0.17106	-0.477
Mof_O 	O 	0.3393	0.96451	0.21006	-0.471
Mof_C 	C 	0.36577	0.95383	0.19797	0.4
Mof_C 	C 	0.38238	0.92526	0.21471	-0.092
Mof_C 	C 	0.37055	0.91336	0.24486	-0.055
Mof_H 	H 	0.352	0.924	0.2552	0.06
Mof_H 	H 	0.3834	0.855	0.3027	0.056
Mof_C 	C 	0.2561	0.0332	0.2288	-0.008
Mof_H 	H 	0.273	0.0506	0.2338	0.011
Mof_C 	C 	0.2417	0.0132	0.2146	-0.071
Mof_H 	H 	0.3554	0.8785	0.3036	0.048
Mof_H 	H 	0.3899	0.8583	0.3059	-0.009
Mof_H 	H 	0.3894	0.8979	0.3121	0.052
Mof_H 	H 	0.2459	0.0383	0.2068	0.026
Mof_H 	H 	0.2454	0.0363	0.2066	0.014
Mof_O 	O 	0.37874	0.4645	0.67106	-0.482
Mof_O 	O 	0.3393	0.46451	0.71006	-0.476
Mof_C 	C 	0.36577	0.45383	0.69797	0.401
Mof_C 	C 	0.38238	0.42526	0.71471	-0.095
Mof_C 	C 	0.37055	0.41336	0.74486	-0.054
Mof_H 	H 	0.352	0.424	0.7552	0.059
Mof_H 	H 	0.3834	0.355	0.8027	0.056
Mof_C 	C 	0.2561	0.5332	0.7288	-0.028
Mof_H 	H 	0.273	0.5506	0.7338	0.02
Mof_C 	C 	0.2417	0.5132	0.7146	-0.016
Mof_H 	H 	0.3554	0.3785	0.8036	0.048
Mof_H 	H 	0.3899	0.3583	0.8059	-0.009
Mof_H 	H 	0.3894	0.3979	0.8121	0.051
Mof_H 	H 	0.2459	0.5383	0.7068	0.017
Mof_H 	H 	0.2454	0.5363	0.7066	0.013
Mof_O 	O 	0.12126	0.0355	0.67106	-0.487
Mof_O 	O 	0.1607	0.03549	0.71006	-0.479
Mof_C 	C 	0.13423	0.04617	0.69797	0.401
Mof_C 	C 	0.11762	0.07474	0.71471	-0.097
Mof_C 	C 	0.12945	0.08664	0.74486	-0.054
Mof_H 	H 	0.148	0.076	0.7552	0.058
Mof_H 	H 	0.1166	0.145	0.8027	0.056
Mof_C 	C 	0.2439	0.9668	0.7288	-0.052
Mof_H 	H 	0.227	0.9494	0.7338	0.03
Mof_C 	C 	0.2583	0.9868	0.7146	0.058
Mof_H 	H 	0.1446	0.1215	0.8036	0.048
Mof_H 	H 	0.1101	0.1417	0.8059	-0.009
Mof_H 	H 	0.1106	0.1021	0.8121	0.05
Mof_H 	H 	0.2541	0.9617	0.7068	0.007
Mof_H 	H 	0.2546	0.9637	0.7066	0.012
Mof_O 	O 	0.12126	0.5355	0.17106	-0.483
Mof_O 	O 	0.1607	0.53549	0.21006	-0.477
Mof_C 	C 	0.13423	0.54617	0.19797	0.401
Mof_C 	C 	0.11762	0.57474	0.21471	-0.096
Mof_C 	C 	0.12945	0.58664	0.24486	-0.054
Mof_H 	H 	0.148	0.576	0.2552	0.058
Mof_H 	H 	0.1166	0.645	0.3027	0.056
Mof_C 	C 	0.2439	0.4668	0.2288	-0.028
Mof_H 	H 	0.227	0.4494	0.2338	0.02
Mof_C 	C 	0.2583	0.4868	0.2146	-0.016
Mof_H 	H 	0.1446	0.6215	0.3036	0.048
Mof_H 	H 	0.1101	0.6417	0.3059	-0.009
Mof_H 	H 	0.1106	0.6021	0.3121	0.051
Mof_H 	H 	0.2541	0.4617	0.2068	0.017
Mof_H 	H 	0.2546	0.4637	0.2066	0.013
Mof_O 	O 	0.62126	0.0355	0.17106	-0.486
Mof_O 	O 	0.6607	0.03549	0.21006	-0.478
Mof_C 	C 	0.63423	0.04617	0.19797	0.401
Mof_C 	C 	0.61762	0.07474	0.21471	-0.096
Mof_C 	C 	0.62945	0.08664	0.24486	-0.054
Mof_H 	H 	0.648	0.076	0.2552	0.058
Mof_H 	H 	0.6166	0.145	0.3027	0.056
Mof_C 	C 	0.7439	0.9668	0.2288	-0.052
Mof_H 	H 	0.727	0.9494	0.2338	0.03
Mof_C 	C 	0.7583	0.9868	0.2146	0.058
Mof_H 	H 	0.6446	0.1215	0.3036	0.047
Mof_H 	H 	0.6101	0.1417	0.3059	-0.009
Mof_H 	H 	0.6106	0.1021	0.3121	0.049
Mof_H 	H 	0.7541	0.9617	0.2068	0.007
Mof_H 	H 	0.7546	0.9637	0.2066	0.012
Mof_O 	O 	0.62126	0.5355	0.67106	-0.482
Mof_O 	O 	0.6607	0.53549	0.71006	-0.476
Mof_C 	C 	0.63423	0.54617	0.69797	0.401
Mof_C 	C 	0.61762	0.57474	0.71471	-0.095
Mof_C 	C 	0.62945	0.58664	0.74486	-0.054
Mof_H 	H 	0.648	0.576	0.7552	0.059
Mof_H 	H 	0.6166	0.645	0.8027	0.056
Mof_C 	C 	0.7439	0.4668	0.7288	-0.028
Mof_H 	H 	0.727	0.4494	0.7338	0.02
Mof_C 	C 	0.7583	0.4868	0.7146	-0.016
Mof_H 	H 	0.6446	0.6215	0.8036	0.048
Mof_H 	H 	0.6101	0.6417	0.8059	-0.009
Mof_H 	H 	0.6106	0.6021	0.8121	0.051
Mof_H 	H 	0.7541	0.4617	0.7068	0.017
Mof_H 	H 	0.7546	0.4637	0.7066	0.013
Mof_O 	O 	0.32894	0.12126	0.9645	-0.477
Mof_O 	O 	0.28994	0.1607	0.96451	-0.471
Mof_C 	C 	0.30203	0.13423	0.95383	0.4
Mof_C 	C 	0.28529	0.11762	0.92526	-0.093
Mof_C 	C 	0.25514	0.12945	0.91336	-0.055
Mof_H 	H 	0.2448	0.148	0.924	0.06
Mof_H 	H 	0.1973	0.1166	0.855	0.056
Mof_C 	C 	0.2712	0.2439	0.0332	-0.008
Mof_H 	H 	0.2662	0.227	0.0506	0.011
Mof_C 	C 	0.2854	0.2583	0.0132	-0.071
Mof_H 	H 	0.1964	0.1446	0.8785	0.048
Mof_H 	H 	0.1941	0.1101	0.8583	-0.009
Mof_H 	H 	0.1879	0.1106	0.8979	0.053
Mof_H 	H 	0.2932	0.2541	0.0383	0.026
Mof_H 	H 	0.2934	0.2546	0.0363	0.014
Mof_O 	O 	0.32894	0.62126	0.4645	-0.482
Mof_O 	O 	0.28994	0.6607	0.46451	-0.476
Mof_C 	C 	0.30203	0.63423	0.45383	0.401
Mof_C 	C 	0.28529	0.61762	0.42526	-0.095
Mof_C 	C 	0.25514	0.62945	0.41336	-0.054
Mof_H 	H 	0.2448	0.648	0.424	0.059
Mof_H 	H 	0.1973	0.6166	0.355	0.056
Mof_C 	C 	0.2712	0.7439	0.5332	-0.028
Mof_H 	H 	0.2662	0.727	0.5506	0.02
Mof_C 	C 	0.2854	0.7583	0.5132	-0.016
Mof_H 	H 	0.1964	0.6446	0.3785	0.048
Mof_H 	H 	0.1941	0.6101	0.3583	-0.009
Mof_H 	H 	0.1879	0.6106	0.3979	0.05
Mof_H 	H 	0.2932	0.7541	0.5383	0.017
Mof_H 	H 	0.2934	0.7546	0.5363	0.013
Mof_O 	O 	0.82894	0.12126	0.4645	-0.483
Mof_O 	O 	0.78994	0.1607	0.46451	-0.477
Mof_C 	C 	0.80203	0.13423	0.45383	0.401
Mof_C 	C 	0.78529	0.11762	0.42526	-0.095
Mof_C 	C 	0.75514	0.12945	0.41336	-0.054
Mof_H 	H 	0.7448	0.148	0.424	0.058
Mof_H 	H 	0.6973	0.1166	0.355	0.056
Mof_C 	C 	0.7712	0.2439	0.5332	-0.028
Mof_H 	H 	0.7662	0.227	0.5506	0.02
Mof_C 	C 	0.7854	0.2583	0.5132	-0.016
Mof_H 	H 	0.6964	0.1446	0.3785	0.048
Mof_H 	H 	0.6941	0.1101	0.3583	-0.009
Mof_H 	H 	0.6879	0.1106	0.3979	0.051
Mof_H 	H 	0.7932	0.2541	0.5383	0.017
Mof_H 	H 	0.7934	0.2546	0.5363	0.013
Mof_O 	O 	0.82894	0.62126	0.9645	-0.476
Mof_O 	O 	0.78994	0.6607	0.96451	-0.471
Mof_C 	C 	0.80203	0.63423	0.95383	0.4
Mof_C 	C 	0.78529	0.61762	0.92526	-0.092
Mof_C 	C 	0.75514	0.62945	0.91336	-0.055
Mof_H 	H 	0.7448	0.648	0.924	0.06
Mof_H 	H 	0.6973	0.6166	0.855	0.056
Mof_C 	C 	0.7712	0.7439	0.0332	-0.008
Mof_H 	H 	0.7662	0.727	0.0506	0.011
Mof_C 	C 	0.7854	0.7583	0.0132	-0.071
Mof_H 	H 	0.6964	0.6446	0.8785	0.048
Mof_H 	H 	0.6941	0.6101	0.8583	-0.009
Mof_H 	H 	0.6879	0.6106	0.8979	0.052
Mof_H 	H 	0.7932	0.7541	0.0383	0.026
Mof_H 	H 	0.7934	0.7546	0.0363	0.014
Mof_O 	O 	0.32894	0.87874	0.0355	-0.485
Mof_O 	O 	0.28994	0.8393	0.03549	-0.478
Mof_C 	C 	0.30203	0.86577	0.04617	0.401
Mof_C 	C 	0.28529	0.88238	0.07474	-0.095
Mof_C 	C 	0.25514	0.87055	0.08664	-0.055
Mof_H 	H 	0.2448	0.852	0.076	0.059
Mof_H 	H 	0.1973	0.8834	0.145	0.056
Mof_C 	C 	0.2712	0.7561	0.9668	-0.052
Mof_H 	H 	0.2662	0.773	0.9494	0.03
Mof_C 	C 	0.2854	0.7417	0.9868	0.058
Mof_H 	H 	0.1964	0.8554	0.1215	0.047
Mof_H 	H 	0.1941	0.8899	0.1417	-0.009
Mof_H 	H 	0.1879	0.8894	0.1021	0.048
Mof_H 	H 	0.2932	0.7459	0.9617	0.007
Mof_H 	H 	0.2934	0.7454	0.9637	0.012
Mof_O 	O 	0.32894	0.37874	0.5355	-0.482
Mof_O 	O 	0.28994	0.3393	0.53549	-0.476
Mof_C 	C 	0.30203	0.36577	0.54617	0.401
Mof_C 	C 	0.28529	0.38238	0.57474	-0.095
Mof_C 	C 	0.25514	0.37055	0.58664	-0.054
Mof_H 	H 	0.2448	0.352	0.576	0.059
Mof_H 	H 	0.1973	0.3834	0.645	0.056
Mof_C 	C 	0.2712	0.2561	0.4668	-0.028
Mof_H 	H 	0.2662	0.273	0.4494	0.02
Mof_C 	C 	0.2854	0.2417	0.4868	-0.016
Mof_H 	H 	0.1964	0.3554	0.6215	0.048
Mof_H 	H 	0.1941	0.3899	0.6417	-0.009
Mof_H 	H 	0.1879	0.3894	0.6021	0.05
Mof_H 	H 	0.2932	0.2459	0.4617	0.017
Mof_H 	H 	0.2934	0.2454	0.4637	0.013
Mof_O 	O 	0.82894	0.87874	0.5355	-0.481
Mof_O 	O 	0.78994	0.8393	0.53549	-0.476
Mof_C 	C 	0.80203	0.86577	0.54617	0.401
Mof_C 	C 	0.78529	0.88238	0.57474	-0.093
Mof_C 	C 	0.75514	0.87055	0.58664	-0.055
Mof_H 	H 	0.7448	0.852	0.576	0.059
Mof_H 	H 	0.6973	0.8834	0.645	0.056
Mof_C 	C 	0.7712	0.7561	0.4668	-0.028
Mof_H 	H 	0.7662	0.773	0.4494	0.02
Mof_C 	C 	0.7854	0.7417	0.4868	-0.016
Mof_H 	H 	0.6964	0.8554	0.6215	0.048
Mof_H 	H 	0.6941	0.8899	0.6417	-0.009
Mof_H 	H 	0.6879	0.8894	0.6021	0.05
Mof_H 	H 	0.7932	0.7459	0.4617	0.017
Mof_H 	H 	0.7934	0.7454	0.4637	0.013
Mof_O 	O 	0.82894	0.37874	0.0355	-0.485
Mof_O 	O 	0.78994	0.3393	0.03549	-0.478
Mof_C 	C 	0.80203	0.36577	0.04617	0.401
Mof_C 	C 	0.78529	0.38238	0.07474	-0.096
Mof_C 	C 	0.75514	0.37055	0.08664	-0.054
Mof_H 	H 	0.7448	0.352	0.076	0.058
Mof_H 	H 	0.6973	0.3834	0.145	0.056
Mof_C 	C 	0.7712	0.2561	0.9668	-0.052
Mof_H 	H 	0.7662	0.273	0.9494	0.03
Mof_C 	C 	0.7854	0.2417	0.9868	0.058
Mof_H 	H 	0.6964	0.3554	0.1215	0.047
Mof_H 	H 	0.6941	0.3899	0.1417	-0.009
Mof_H 	H 	0.6879	0.3894	0.1021	0.049
Mof_H 	H 	0.7932	0.2459	0.9617	0.007
Mof_H 	H 	0.7934	0.2454	0.9637	0.012
Mof_O 	O 	0.67106	0.87874	0.9645	-0.475
Mof_O 	O 	0.71006	0.8393	0.96451	-0.47
Mof_C 	C 	0.69797	0.86577	0.95383	0.4
Mof_C 	C 	0.71471	0.88238	0.92526	-0.091
Mof_C 	C 	0.74486	0.87055	0.91336	-0.056
Mof_H 	H 	0.7552	0.852	0.924	0.061
Mof_H 	H 	0.8027	0.8834	0.855	0.057
Mof_C 	C 	0.7288	0.7561	0.0332	-0.008
Mof_H 	H 	0.7338	0.773	0.0506	0.011
Mof_C 	C 	0.7146	0.7417	0.0132	-0.071
Mof_H 	H 	0.8036	0.8554	0.8785	0.048
Mof_H 	H 	0.8059	0.8899	0.8583	-0.009
Mof_H 	H 	0.8121	0.8894	0.8979	0.052
Mof_H 	H 	0.7068	0.7459	0.0383	0.026
Mof_H 	H 	0.7066	0.7454	0.0363	0.014
Mof_O 	O 	0.67106	0.37874	0.4645	-0.482
Mof_O 	O 	0.71006	0.3393	0.46451	-0.476
Mof_C 	C 	0.69797	0.36577	0.45383	0.401
Mof_C 	C 	0.71471	0.38238	0.42526	-0.095
Mof_C 	C 	0.74486	0.37055	0.41336	-0.054
Mof_H 	H 	0.7552	0.352	0.424	0.059
Mof_H 	H 	0.8027	0.3834	0.355	0.056
Mof_C 	C 	0.7288	0.2561	0.5332	-0.028
Mof_H 	H 	0.7338	0.273	0.5506	0.02
Mof_C 	C 	0.7146	0.2417	0.5132	-0.016
Mof_H 	H 	0.8036	0.3554	0.3785	0.048
Mof_H 	H 	0.8059	0.3899	0.3583	-0.009
Mof_H 	H 	0.8121	0.3894	0.3979	0.051
Mof_H 	H 	0.7068	0.2459	0.5383	0.017
Mof_H 	H 	0.7066	0.2454	0.5363	0.013
Mof_O 	O 	0.17106	0.87874	0.4645	-0.481
Mof_O 	O 	0.21006	0.8393	0.46451	-0.476
Mof_C 	C 	0.19797	0.86577	0.45383	0.401
Mof_C 	C 	0.21471	0.88238	0.42526	-0.093
Mof_C 	C 	0.24486	0.87055	0.41336	-0.055
Mof_H 	H 	0.2552	0.852	0.424	0.059
Mof_H 	H 	0.3027	0.8834	0.355	0.056
Mof_C 	C 	0.2288	0.7561	0.5332	-0.028
Mof_H 	H 	0.2338	0.773	0.5506	0.02
Mof_C 	C 	0.2146	0.7417	0.5132	-0.016
Mof_H 	H 	0.3036	0.8554	0.3785	0.048
Mof_H 	H 	0.3059	0.8899	0.3583	-0.009
Mof_H 	H 	0.3121	0.8894	0.3979	0.05
Mof_H 	H 	0.2068	0.7459	0.5383	0.017
Mof_H 	H 	0.2066	0.7454	0.5363	0.013
Mof_O 	O 	0.17106	0.37874	0.9645	-0.477
Mof_O 	O 	0.21006	0.3393	0.96451	-0.471
Mof_C 	C 	0.19797	0.36577	0.95383	0.4
Mof_C 	C 	0.21471	0.38238	0.92526	-0.092
Mof_C 	C 	0.24486	0.37055	0.91336	-0.055
Mof_H 	H 	0.2552	0.352	0.924	0.06
Mof_H 	H 	0.3027	0.3834	0.855	0.056
Mof_C 	C 	0.2288	0.2561	0.0332	-0.008
Mof_H 	H 	0.2338	0.273	0.0506	0.011
Mof_C 	C 	0.2146	0.2417	0.0132	-0.071
Mof_H 	H 	0.3036	0.3554	0.8785	0.048
Mof_H 	H 	0.3059	0.3899	0.8583	-0.009
Mof_H 	H 	0.3121	0.3894	0.8979	0.052
Mof_H 	H 	0.2068	0.2459	0.0383	0.026
Mof_H 	H 	0.2066	0.2454	0.0363	0.014
Mof_O 	O 	0.67106	0.12126	0.0355	-0.487
Mof_O 	O 	0.71006	0.1607	0.03549	-0.479
Mof_C 	C 	0.69797	0.13423	0.04617	0.401
Mof_C 	C 	0.71471	0.11762	0.07474	-0.097
Mof_C 	C 	0.74486	0.12945	0.08664	-0.054
Mof_H 	H 	0.7552	0.148	0.076	0.058
Mof_H 	H 	0.8027	0.1166	0.145	0.056
Mof_C 	C 	0.7288	0.2439	0.9668	-0.052
Mof_H 	H 	0.7338	0.227	0.9494	0.03
Mof_C 	C 	0.7146	0.2583	0.9868	0.058
Mof_H 	H 	0.8036	0.1446	0.1215	0.048
Mof_H 	H 	0.8059	0.1101	0.1417	-0.009
Mof_H 	H 	0.8121	0.1106	0.1021	0.05
Mof_H 	H 	0.7068	0.2541	0.9617	0.007
Mof_H 	H 	0.7066	0.2546	0.9637	0.012
Mof_O 	O 	0.67106	0.62126	0.5355	-0.482
Mof_O 	O 	0.71006	0.6607	0.53549	-0.476
Mof_C 	C 	0.69797	0.63423	0.54617	0.401
Mof_C 	C 	0.71471	0.61762	0.57474	-0.095
Mof_C 	C 	0.74486	0.62945	0.58664	-0.054
Mof_H 	H 	0.7552	0.648	0.576	0.059
Mof_H 	H 	0.8027	0.6166	0.645	0.056
Mof_C 	C 	0.7288	0.7439	0.4668	-0.028
Mof_H 	H 	0.7338	0.727	0.4494	0.02
Mof_C 	C 	0.7146	0.7583	0.4868	-0.016
Mof_H 	H 	0.8036	0.6446	0.6215	0.048
Mof_H 	H 	0.8059	0.6101	0.6417	-0.009
Mof_H 	H 	0.8121	0.6106	0.6021	0.051
Mof_H 	H 	0.7068	0.7541	0.4617	0.017
Mof_H 	H 	0.7066	0.7546	0.4637	0.013
Mof_O 	O 	0.17106	0.12126	0.5355	-0.483
Mof_O 	O 	0.21006	0.1607	0.53549	-0.477
Mof_C 	C 	0.19797	0.13423	0.54617	0.401
Mof_C 	C 	0.21471	0.11762	0.57474	-0.096
Mof_C 	C 	0.24486	0.12945	0.58664	-0.054
Mof_H 	H 	0.2552	0.148	0.576	0.058
Mof_H 	H 	0.3027	0.1166	0.645	0.056
Mof_C 	C 	0.2288	0.2439	0.4668	-0.028
Mof_H 	H 	0.2338	0.227	0.4494	0.02
Mof_C 	C 	0.2146	0.2583	0.4868	-0.016
Mof_H 	H 	0.3036	0.1446	0.6215	0.048
Mof_H 	H 	0.3059	0.1101	0.6417	-0.009
Mof_H 	H 	0.3121	0.1106	0.6021	0.051
Mof_H 	H 	0.2068	0.2541	0.4617	0.017
Mof_H 	H 	0.2066	0.2546	0.4637	0.013
Mof_O 	O 	0.17106	0.62126	0.0355	-0.486
Mof_O 	O 	0.21006	0.6607	0.03549	-0.478
Mof_C 	C 	0.19797	0.63423	0.04617	0.401
Mof_C 	C 	0.21471	0.61762	0.07474	-0.096
Mof_C 	C 	0.24486	0.62945	0.08664	-0.054
Mof_H 	H 	0.2552	0.648	0.076	0.058
Mof_H 	H 	0.3027	0.6166	0.145	0.056
Mof_C 	C 	0.2288	0.7439	0.9668	-0.052
Mof_H 	H 	0.2338	0.727	0.9494	0.03
Mof_C 	C 	0.2146	0.7583	0.9868	0.058
Mof_H 	H 	0.3036	0.6446	0.1215	0.047
Mof_H 	H 	0.3059	0.6101	0.1417	-0.009
Mof_H 	H 	0.3121	0.6106	0.1021	0.049
Mof_H 	H 	0.2068	0.7541	0.9617	0.007
Mof_H 	H 	0.2066	0.7546	0.9637	0.012
Mof_O 	O 	0.9645	0.32894	0.12126	-0.477
Mof_O 	O 	0.96451	0.28994	0.1607	-0.471
Mof_C 	C 	0.95383	0.30203	0.13423	0.4
Mof_C 	C 	0.92526	0.28529	0.11762	-0.093
Mof_C 	C 	0.91336	0.25514	0.12945	-0.055
Mof_H 	H 	0.924	0.2448	0.148	0.06
Mof_H 	H 	0.855	0.1973	0.1166	0.056
Mof_C 	C 	0.0332	0.2712	0.2439	-0.008
Mof_H 	H 	0.0506	0.2662	0.227	0.011
Mof_C 	C 	0.0132	0.2854	0.2583	-0.071
Mof_H 	H 	0.8785	0.1964	0.1446	0.048
Mof_H 	H 	0.8583	0.1941	0.1101	-0.009
Mof_H 	H 	0.8979	0.1879	0.1106	0.053
Mof_H 	H 	0.0383	0.2932	0.2541	0.026
Mof_H 	H 	0.0363	0.2934	0.2546	0.014
Mof_O 	O 	0.9645	0.82894	0.62126	-0.476
Mof_O 	O 	0.96451	0.78994	0.6607	-0.471
Mof_C 	C 	0.95383	0.80203	0.63423	0.4
Mof_C 	C 	0.92526	0.78529	0.61762	-0.092
Mof_C 	C 	0.91336	0.75514	0.62945	-0.055
Mof_H 	H 	0.924	0.7448	0.648	0.06
Mof_H 	H 	0.855	0.6973	0.6166	0.056
Mof_C 	C 	0.0332	0.7712	0.7439	-0.008
Mof_H 	H 	0.0506	0.7662	0.727	0.011
Mof_C 	C 	0.0132	0.7854	0.7583	-0.071
Mof_H 	H 	0.8785	0.6964	0.6446	0.048
Mof_H 	H 	0.8583	0.6941	0.6101	-0.009
Mof_H 	H 	0.8979	0.6879	0.6106	0.052
Mof_H 	H 	0.0383	0.7932	0.7541	0.026
Mof_H 	H 	0.0363	0.7934	0.7546	0.014
Mof_O 	O 	0.4645	0.32894	0.62126	-0.482
Mof_O 	O 	0.46451	0.28994	0.6607	-0.476
Mof_C 	C 	0.45383	0.30203	0.63423	0.401
Mof_C 	C 	0.42526	0.28529	0.61762	-0.095
Mof_C 	C 	0.41336	0.25514	0.62945	-0.054
Mof_H 	H 	0.424	0.2448	0.648	0.059
Mof_H 	H 	0.355	0.1973	0.6166	0.056
Mof_C 	C 	0.5332	0.2712	0.7439	-0.028
Mof_H 	H 	0.5506	0.2662	0.727	0.02
Mof_C 	C 	0.5132	0.2854	0.7583	-0.016
Mof_H 	H 	0.3785	0.1964	0.6446	0.048
Mof_H 	H 	0.3583	0.1941	0.6101	-0.009
Mof_H 	H 	0.3979	0.1879	0.6106	0.05
Mof_H 	H 	0.5383	0.2932	0.7541	0.017
Mof_H 	H 	0.5363	0.2934	0.7546	0.013
Mof_O 	O 	0.4645	0.82894	0.12126	-0.483
Mof_O 	O 	0.46451	0.78994	0.1607	-0.477
Mof_C 	C 	0.45383	0.80203	0.13423	0.401
Mof_C 	C 	0.42526	0.78529	0.11762	-0.095
Mof_C 	C 	0.41336	0.75514	0.12945	-0.054
Mof_H 	H 	0.424	0.7448	0.148	0.058
Mof_H 	H 	0.355	0.6973	0.1166	0.056
Mof_C 	C 	0.5332	0.7712	0.2439	-0.028
Mof_H 	H 	0.5506	0.7662	0.227	0.02
Mof_C 	C 	0.5132	0.7854	0.2583	-0.016
Mof_H 	H 	0.3785	0.6964	0.1446	0.048
Mof_H 	H 	0.3583	0.6941	0.1101	-0.009
Mof_H 	H 	0.3979	0.6879	0.1106	0.051
Mof_H 	H 	0.5383	0.7932	0.2541	0.017
Mof_H 	H 	0.5363	0.7934	0.2546	0.013
Mof_O 	O 	0.0355	0.32894	0.87874	-0.485
Mof_O 	O 	0.03549	0.28994	0.8393	-0.478
Mof_C 	C 	0.04617	0.30203	0.86577	0.401
Mof_C 	C 	0.07474	0.28529	0.88238	-0.095
Mof_C 	C 	0.08664	0.25514	0.87055	-0.055
Mof_H 	H 	0.076	0.2448	0.852	0.059
Mof_H 	H 	0.145	0.1973	0.8834	0.056
Mof_C 	C 	0.9668	0.2712	0.7561	-0.052
Mof_H 	H 	0.9494	0.2662	0.773	0.03
Mof_C 	C 	0.9868	0.2854	0.7417	0.058
Mof_H 	H 	0.1215	0.1964	0.8554	0.047
Mof_H 	H 	0.1417	0.1941	0.8899	-0.009
Mof_H 	H 	0.1021	0.1879	0.8894	0.048
Mof_H 	H 	0.9617	0.2932	0.7459	0.007
Mof_H 	H 	0.9637	0.2934	0.7454	0.012
Mof_O 	O 	0.0355	0.82894	0.37874	-0.485
Mof_O 	O 	0.03549	0.78994	0.3393	-0.478
Mof_C 	C 	0.04617	0.80203	0.36577	0.401
Mof_C 	C 	0.07474	0.78529	0.38238	-0.096
Mof_C 	C 	0.08664	0.75514	0.37055	-0.054
Mof_H 	H 	0.076	0.7448	0.352	0.058
Mof_H 	H 	0.145	0.6973	0.3834	0.056
Mof_C 	C 	0.9668	0.7712	0.2561	-0.052
Mof_H 	H 	0.9494	0.7662	0.273	0.03
Mof_C 	C 	0.9868	0.7854	0.2417	0.058
Mof_H 	H 	0.1215	0.6964	0.3554	0.047
Mof_H 	H 	0.1417	0.6941	0.3899	-0.009
Mof_H 	H 	0.1021	0.6879	0.3894	0.049
Mof_H 	H 	0.9617	0.7932	0.2459	0.007
Mof_H 	H 	0.9637	0.7934	0.2454	0.012
Mof_O 	O 	0.5355	0.32894	0.37874	-0.482
Mof_O 	O 	0.53549	0.28994	0.3393	-0.476
Mof_C 	C 	0.54617	0.30203	0.36577	0.401
Mof_C 	C 	0.57474	0.28529	0.38238	-0.095
Mof_C 	C 	0.58664	0.25514	0.37055	-0.054
Mof_H 	H 	0.576	0.2448	0.352	0.059
Mof_H 	H 	0.645	0.1973	0.3834	0.056
Mof_C 	C 	0.4668	0.2712	0.2561	-0.028
Mof_H 	H 	0.4494	0.2662	0.273	0.02
Mof_C 	C 	0.4868	0.2854	0.2417	-0.016
Mof_H 	H 	0.6215	0.1964	0.3554	0.048
Mof_H 	H 	0.6417	0.1941	0.3899	-0.009
Mof_H 	H 	0.6021	0.1879	0.3894	0.05
Mof_H 	H 	0.4617	0.2932	0.2459	0.017
Mof_H 	H 	0.4637	0.2934	0.2454	0.013
Mof_O 	O 	0.5355	0.82894	0.87874	-0.481
Mof_O 	O 	0.53549	0.78994	0.8393	-0.476
Mof_C 	C 	0.54617	0.80203	0.86577	0.401
Mof_C 	C 	0.57474	0.78529	0.88238	-0.093
Mof_C 	C 	0.58664	0.75514	0.87055	-0.055
Mof_H 	H 	0.576	0.7448	0.852	0.059
Mof_H 	H 	0.645	0.6973	0.8834	0.056
Mof_C 	C 	0.4668	0.7712	0.7561	-0.028
Mof_H 	H 	0.4494	0.7662	0.773	0.02
Mof_C 	C 	0.4868	0.7854	0.7417	-0.016
Mof_H 	H 	0.6215	0.6964	0.8554	0.048
Mof_H 	H 	0.6417	0.6941	0.8899	-0.009
Mof_H 	H 	0.6021	0.6879	0.8894	0.05
Mof_H 	H 	0.4617	0.7932	0.7459	0.017
Mof_H 	H 	0.4637	0.7934	0.7454	0.013
Mof_O 	O 	0.9645	0.67106	0.87874	-0.475
Mof_O 	O 	0.96451	0.71006	0.8393	-0.47
Mof_C 	C 	0.95383	0.69797	0.86577	0.4
Mof_C 	C 	0.92526	0.71471	0.88238	-0.091
Mof_C 	C 	0.91336	0.74486	0.87055	-0.056
Mof_H 	H 	0.924	0.7552	0.852	0.061
Mof_H 	H 	0.855	0.8027	0.8834	0.057
Mof_C 	C 	0.0332	0.7288	0.7561	-0.008
Mof_H 	H 	0.0506	0.7338	0.773	0.011
Mof_C 	C 	0.0132	0.7146	0.7417	-0.071
Mof_H 	H 	0.8785	0.8036	0.8554	0.048
Mof_H 	H 	0.8583	0.8059	0.8899	-0.009
Mof_H 	H 	0.8979	0.8121	0.8894	0.052
Mof_H 	H 	0.0383	0.7068	0.7459	0.026
Mof_H 	H 	0.0363	0.7066	0.7454	0.014
Mof_O 	O 	0.9645	0.17106	0.37874	-0.477
Mof_O 	O 	0.96451	0.21006	0.3393	-0.471
Mof_C 	C 	0.95383	0.19797	0.36577	0.4
Mof_C 	C 	0.92526	0.21471	0.38238	-0.092
Mof_C 	C 	0.91336	0.24486	0.37055	-0.055
Mof_H 	H 	0.924	0.2552	0.352	0.06
Mof_H 	H 	0.855	0.3027	0.3834	0.056
Mof_C 	C 	0.0332	0.2288	0.2561	-0.008
Mof_H 	H 	0.0506	0.2338	0.273	0.011
Mof_C 	C 	0.0132	0.2146	0.2417	-0.071
Mof_H 	H 	0.8785	0.3036	0.3554	0.048
Mof_H 	H 	0.8583	0.3059	0.3899	-0.009
Mof_H 	H 	0.8979	0.3121	0.3894	0.052
Mof_H 	H 	0.0383	0.2068	0.2459	0.026
Mof_H 	H 	0.0363	0.2066	0.2454	0.014
Mof_O 	O 	0.4645	0.67106	0.37874	-0.482
Mof_O 	O 	0.46451	0.71006	0.3393	-0.476
Mof_C 	C 	0.45383	0.69797	0.36577	0.401
Mof_C 	C 	0.42526	0.71471	0.38238	-0.095
Mof_C 	C 	0.41336	0.74486	0.37055	-0.054
Mof_H 	H 	0.424	0.7552	0.352	0.059
Mof_H 	H 	0.355	0.8027	0.3834	0.056
Mof_C 	C 	0.5332	0.7288	0.2561	-0.028
Mof_H 	H 	0.5506	0.7338	0.273	0.02
Mof_C 	C 	0.5132	0.7146	0.2417	-0.016
Mof_H 	H 	0.3785	0.8036	0.3554	0.048
Mof_H 	H 	0.3583	0.8059	0.3899	-0.009
Mof_H 	H 	0.3979	0.8121	0.3894	0.051
Mof_H 	H 	0.5383	0.7068	0.2459	0.017
Mof_H 	H 	0.5363	0.7066	0.2454	0.013
Mof_O 	O 	0.4645	0.17106	0.87874	-0.481
Mof_O 	O 	0.46451	0.21006	0.8393	-0.476
Mof_C 	C 	0.45383	0.19797	0.86577	0.401
Mof_C 	C 	0.42526	0.21471	0.88238	-0.093
Mof_C 	C 	0.41336	0.24486	0.87055	-0.055
Mof_H 	H 	0.424	0.2552	0.852	0.059
Mof_H 	H 	0.355	0.3027	0.8834	0.056
Mof_C 	C 	0.5332	0.2288	0.7561	-0.028
Mof_H 	H 	0.5506	0.2338	0.773	0.02
Mof_C 	C 	0.5132	0.2146	0.7417	-0.016
Mof_H 	H 	0.3785	0.3036	0.8554	0.048
Mof_H 	H 	0.3583	0.3059	0.8899	-0.009
Mof_H 	H 	0.3979	0.3121	0.8894	0.05
Mof_H 	H 	0.5383	0.2068	0.7459	0.017
Mof_H 	H 	0.5363	0.2066	0.7454	0.013
Mof_O 	O 	0.0355	0.67106	0.12126	-0.487
Mof_O 	O 	0.03549	0.71006	0.1607	-0.479
Mof_C 	C 	0.04617	0.69797	0.13423	0.401
Mof_C 	C 	0.07474	0.71471	0.11762	-0.097
Mof_C 	C 	0.08664	0.74486	0.12945	-0.054
Mof_H 	H 	0.076	0.7552	0.148	0.058
Mof_H 	H 	0.145	0.8027	0.1166	0.056
Mof_C 	C 	0.9668	0.7288	0.2439	-0.052
Mof_H 	H 	0.9494	0.7338	0.227	0.03
Mof_C 	C 	0.9868	0.7146	0.2583	0.058
Mof_H 	H 	0.1215	0.8036	0.1446	0.048
Mof_H 	H 	0.1417	0.8059	0.1101	-0.009
Mof_H 	H 	0.1021	0.8121	0.1106	0.05
Mof_H 	H 	0.9617	0.7068	0.2541	0.007
Mof_H 	H 	0.9637	0.7066	0.2546	0.012
Mof_O 	O 	0.0355	0.17106	0.62126	-0.486
Mof_O 	O 	0.03549	0.21006	0.6607	-0.478
Mof_C 	C 	0.04617	0.19797	0.63423	0.401
Mof_C 	C 	0.07474	0.21471	0.61762	-0.096
Mof_C 	C 	0.08664	0.24486	0.62945	-0.054
Mof_H 	H 	0.076	0.2552	0.648	0.058
Mof_H 	H 	0.145	0.3027	0.6166	0.056
Mof_C 	C 	0.9668	0.2288	0.7439	-0.052
Mof_H 	H 	0.9494	0.2338	0.727	0.03
Mof_C 	C 	0.9868	0.2146	0.7583	0.058
Mof_H 	H 	0.1215	0.3036	0.6446	0.047
Mof_H 	H 	0.1417	0.3059	0.6101	-0.009
Mof_H 	H 	0.1021	0.3121	0.6106	0.049
Mof_H 	H 	0.9617	0.2068	0.7541	0.007
Mof_H 	H 	0.9637	0.2066	0.7546	0.012
Mof_O 	O 	0.5355	0.67106	0.62126	-0.482
Mof_O 	O 	0.53549	0.71006	0.6607	-0.476
Mof_C 	C 	0.54617	0.69797	0.63423	0.401
Mof_C 	C 	0.57474	0.71471	0.61762	-0.095
Mof_C 	C 	0.58664	0.74486	0.62945	-0.054
Mof_H 	H 	0.576	0.7552	0.648	0.059
Mof_H 	H 	0.645	0.8027	0.6166	0.056
Mof_C 	C 	0.4668	0.7288	0.7439	-0.028
Mof_H 	H 	0.4494	0.7338	0.727	0.02
Mof_C 	C 	0.4868	0.7146	0.7583	-0.016
Mof_H 	H 	0.6215	0.8036	0.6446	0.048
Mof_H 	H 	0.6417	0.8059	0.6101	-0.009
Mof_H 	H 	0.6021	0.8121	0.6106	0.051
Mof_H 	H 	0.4617	0.7068	0.7541	0.017
Mof_H 	H 	0.4637	0.7066	0.7546	0.013
Mof_O 	O 	0.5355	0.17106	0.12126	-0.483
Mof_O 	O 	0.53549	0.21006	0.1607	-0.477
Mof_C 	C 	0.54617	0.19797	0.13423	0.401
Mof_C 	C 	0.57474	0.21471	0.11762	-0.096
Mof_C 	C 	0.58664	0.24486	0.12945	-0.054
Mof_H 	H 	0.576	0.2552	0.148	0.058
Mof_H 	H 	0.645	0.3027	0.1166	0.056
Mof_C 	C 	0.4668	0.2288	0.2439	-0.028
Mof_H 	H 	0.4494	0.2338	0.227	0.02
Mof_C 	C 	0.4868	0.2146	0.2583	-0.016
Mof_H 	H 	0.6215	0.3036	0.1446	0.048
Mof_H 	H 	0.6417	0.3059	0.1101	-0.009
Mof_H 	H 	0.6021	0.3121	0.1106	0.051
Mof_H 	H 	0.4617	0.2068	0.2541	0.017
Mof_H 	H 	0.4637	0.2066	0.2546	0.013
Mof_O 	O 	0.9645	0.12126	0.67106	-0.477
Mof_O 	O 	0.96451	0.1607	0.71006	-0.471
Mof_C 	C 	0.95383	0.13423	0.69797	0.4
Mof_C 	C 	0.92526	0.11762	0.71471	-0.093
Mof_C 	C 	0.91336	0.12945	0.74486	-0.055
Mof_H 	H 	0.924	0.148	0.7552	0.06
Mof_H 	H 	0.855	0.1166	0.8027	0.056
Mof_C 	C 	0.0332	0.2439	0.7288	-0.008
Mof_H 	H 	0.0506	0.227	0.7338	0.011
Mof_C 	C 	0.0132	0.2583	0.7146	-0.071
Mof_H 	H 	0.8785	0.1446	0.8036	0.048
Mof_H 	H 	0.8583	0.1101	0.8059	-0.009
Mof_H 	H 	0.8979	0.1106	0.8121	0.053
Mof_H 	H 	0.0383	0.2541	0.7068	0.026
Mof_H 	H 	0.0363	0.2546	0.7066	0.014
Mof_O 	O 	0.9645	0.62126	0.17106	-0.477
Mof_O 	O 	0.96451	0.6607	0.21006	-0.471
Mof_C 	C 	0.95383	0.63423	0.19797	0.4
Mof_C 	C 	0.92526	0.61762	0.21471	-0.092
Mof_C 	C 	0.91336	0.62945	0.24486	-0.055
Mof_H 	H 	0.924	0.648	0.2552	0.06
Mof_H 	H 	0.855	0.6166	0.3027	0.056
Mof_C 	C 	0.0332	0.7439	0.2288	-0.008
Mof_H 	H 	0.0506	0.727	0.2338	0.011
Mof_C 	C 	0.0132	0.7583	0.2146	-0.071
Mof_H 	H 	0.8785	0.6446	0.3036	0.048
Mof_H 	H 	0.8583	0.6101	0.3059	-0.009
Mof_H 	H 	0.8979	0.6106	0.3121	0.052
Mof_H 	H 	0.0383	0.7541	0.2068	0.026
Mof_H 	H 	0.0363	0.7546	0.2066	0.014
Mof_O 	O 	0.4645	0.12126	0.17106	-0.483
Mof_O 	O 	0.46451	0.1607	0.21006	-0.477
Mof_C 	C 	0.45383	0.13423	0.19797	0.401
Mof_C 	C 	0.42526	0.11762	0.21471	-0.096
Mof_C 	C 	0.41336	0.12945	0.24486	-0.054
Mof_H 	H 	0.424	0.148	0.2552	0.058
Mof_H 	H 	0.355	0.1166	0.3027	0.056
Mof_C 	C 	0.5332	0.2439	0.2288	-0.028
Mof_H 	H 	0.5506	0.227	0.2338	0.02
Mof_C 	C 	0.5132	0.2583	0.2146	-0.016
Mof_H 	H 	0.3785	0.1446	0.3036	0.048
Mof_H 	H 	0.3583	0.1101	0.3059	-0.009
Mof_H 	H 	0.3979	0.1106	0.3121	0.051
Mof_H 	H 	0.5383	0.2541	0.2068	0.017
Mof_H 	H 	0.5363	0.2546	0.2066	0.013
Mof_O 	O 	0.4645	0.62126	0.67106	-0.482
Mof_O 	O 	0.46451	0.6607	0.71006	-0.476
Mof_C 	C 	0.45383	0.63423	0.69797	0.401
Mof_C 	C 	0.42526	0.61762	0.71471	-0.095
Mof_C 	C 	0.41336	0.62945	0.74486	-0.054
Mof_H 	H 	0.424	0.648	0.7552	0.059
Mof_H 	H 	0.355	0.6166	0.8027	0.056
Mof_C 	C 	0.5332	0.7439	0.7288	-0.028
Mof_H 	H 	0.5506	0.727	0.7338	0.02
Mof_C 	C 	0.5132	0.7583	0.7146	-0.016
Mof_H 	H 	0.3785	0.6446	0.8036	0.048
Mof_H 	H 	0.3583	0.6101	0.8059	-0.009
Mof_H 	H 	0.3979	0.6106	0.8121	0.051
Mof_H 	H 	0.5383	0.7541	0.7068	0.017
Mof_H 	H 	0.5363	0.7546	0.7066	0.013
Mof_O 	O 	0.0355	0.87874	0.67106	-0.485
Mof_O 	O 	0.03549	0.8393	0.71006	-0.478
Mof_C 	C 	0.04617	0.86577	0.69797	0.401
Mof_C 	C 	0.07474	0.88238	0.71471	-0.095
Mof_C 	C 	0.08664	0.87055	0.74486	-0.055
Mof_H 	H 	0.076	0.852	0.7552	0.059
Mof_H 	H 	0.145	0.8834	0.8027	0.056
Mof_C 	C 	0.9668	0.7561	0.7288	-0.052
Mof_H 	H 	0.9494	0.773	0.7338	0.03
Mof_C 	C 	0.9868	0.7417	0.7146	0.058
Mof_H 	H 	0.1215	0.8554	0.8036	0.048
Mof_H 	H 	0.1417	0.8899	0.8059	-0.009
Mof_H 	H 	0.1021	0.8894	0.8121	0.049
Mof_H 	H 	0.9617	0.7459	0.7068	0.006
Mof_H 	H 	0.9637	0.7454	0.7066	0.012
Mof_O 	O 	0.0355	0.37874	0.17106	-0.486
Mof_O 	O 	0.03549	0.3393	0.21006	-0.478
Mof_C 	C 	0.04617	0.36577	0.19797	0.401
Mof_C 	C 	0.07474	0.38238	0.21471	-0.096
Mof_C 	C 	0.08664	0.37055	0.24486	-0.054
Mof_H 	H 	0.076	0.352	0.2552	0.058
Mof_H 	H 	0.145	0.3834	0.3027	0.056
Mof_C 	C 	0.9668	0.2561	0.2288	-0.052
Mof_H 	H 	0.9494	0.273	0.2338	0.03
Mof_C 	C 	0.9868	0.2417	0.2146	0.058
Mof_H 	H 	0.1215	0.3554	0.3036	0.047
Mof_H 	H 	0.1417	0.3899	0.3059	-0.009
Mof_H 	H 	0.1021	0.3894	0.3121	0.049
Mof_H 	H 	0.9617	0.2459	0.2068	0.006
Mof_H 	H 	0.9637	0.2454	0.2066	0.012
Mof_O 	O 	0.5355	0.87874	0.17106	-0.481
Mof_O 	O 	0.53549	0.8393	0.21006	-0.476
Mof_C 	C 	0.54617	0.86577	0.19797	0.401
Mof_C 	C 	0.57474	0.88238	0.21471	-0.094
Mof_C 	C 	0.58664	0.87055	0.24486	-0.055
Mof_H 	H 	0.576	0.852	0.2552	0.059
Mof_H 	H 	0.645	0.8834	0.3027	0.056
Mof_C 	C 	0.4668	0.7561	0.2288	-0.028
Mof_H 	H 	0.4494	0.773	0.2338	0.02
Mof_C 	C 	0.4868	0.7417	0.2146	-0.016
Mof_H 	H 	0.6215	0.8554	0.3036	0.048
Mof_H 	H 	0.6417	0.8899	0.3059	-0.009
Mof_H 	H 	0.6021	0.8894	0.3121	0.05
Mof_H 	H 	0.4617	0.7459	0.2068	0.017
Mof_H 	H 	0.4637	0.7454	0.2066	0.013
Mof_O 	O 	0.5355	0.37874	0.67106	-0.482
Mof_O 	O 	0.53549	0.3393	0.71006	-0.476
Mof_C 	C 	0.54617	0.36577	0.69797	0.401
Mof_C 	C 	0.57474	0.38238	0.71471	-0.095
Mof_C 	C 	0.58664	0.37055	0.74486	-0.054
Mof_H 	H 	0.576	0.352	0.7552	0.059
Mof_H 	H 	0.645	0.3834	0.8027	0.056
Mof_C 	C 	0.4668	0.2561	0.7288	-0.028
Mof_H 	H 	0.4494	0.273	0.7338	0.02
Mof_C 	C 	0.4868	0.2417	0.7146	-0.016
Mof_H 	H 	0.6215	0.3554	0.8036	0.048
Mof_H 	H 	0.6417	0.3899	0.8059	-0.009
Mof_H 	H 	0.6021	0.3894	0.8121	0.051
Mof_H 	H 	0.4617	0.2459	0.7068	0.017
Mof_H 	H 	0.4637	0.2454	0.7066	0.013
Mof_O 	O 	0.9645	0.87874	0.32894	-0.475
Mof_O 	O 	0.96451	0.8393	0.28994	-0.47
Mof_C 	C 	0.95383	0.86577	0.30203	0.4
Mof_C 	C 	0.92526	0.88238	0.28529	-0.091
Mof_C 	C 	0.91336	0.87055	0.25514	-0.056
Mof_H 	H 	0.924	0.852	0.2448	0.061
Mof_H 	H 	0.855	0.8834	0.1973	0.057
Mof_C 	C 	0.0332	0.7561	0.2712	-0.008
Mof_H 	H 	0.0506	0.773	0.2662	0.011
Mof_C 	C 	0.0132	0.7417	0.2854	-0.071
Mof_H 	H 	0.8785	0.8554	0.1964	0.048
Mof_H 	H 	0.8583	0.8899	0.1941	-0.009
Mof_H 	H 	0.8979	0.8894	0.1879	0.052
Mof_H 	H 	0.0383	0.7459	0.2932	0.026
Mof_H 	H 	0.0363	0.7454	0.2934	0.014
Mof_O 	O 	0.9645	0.37874	0.82894	-0.476
Mof_O 	O 	0.96451	0.3393	0.78994	-0.471
Mof_C 	C 	0.95383	0.36577	0.80203	0.4
Mof_C 	C 	0.92526	0.38238	0.78529	-0.092
Mof_C 	C 	0.91336	0.37055	0.75514	-0.055
Mof_H 	H 	0.924	0.352	0.7448	0.06
Mof_H 	H 	0.855	0.3834	0.6973	0.056
Mof_C 	C 	0.0332	0.2561	0.7712	-0.008
Mof_H 	H 	0.0506	0.273	0.7662	0.011
Mof_C 	C 	0.0132	0.2417	0.7854	-0.071
Mof_H 	H 	0.8785	0.3554	0.6964	0.048
Mof_H 	H 	0.8583	0.3899	0.6941	-0.009
Mof_H 	H 	0.8979	0.3894	0.6879	0.052
Mof_H 	H 	0.0383	0.2459	0.7932	0.026
Mof_H 	H 	0.0363	0.2454	0.7934	0.014
Mof_O 	O 	0.4645	0.87874	0.82894	-0.481
Mof_O 	O 	0.46451	0.8393	0.78994	-0.476
Mof_C 	C 	0.45383	0.86577	0.80203	0.401
Mof_C 	C 	0.42526	0.88238	0.78529	-0.093
Mof_C 	C 	0.41336	0.87055	0.75514	-0.055
Mof_H 	H 	0.424	0.852	0.7448	0.059
Mof_H 	H 	0.355	0.8834	0.6973	0.056
Mof_C 	C 	0.5332	0.7561	0.7712	-0.028
Mof_H 	H 	0.5506	0.773	0.7662	0.02
Mof_C 	C 	0.5132	0.7417	0.7854	-0.016
Mof_H 	H 	0.3785	0.8554	0.6964	0.048
Mof_H 	H 	0.3583	0.8899	0.6941	-0.009
Mof_H 	H 	0.3979	0.8894	0.6879	0.05
Mof_H 	H 	0.5383	0.7459	0.7932	0.017
Mof_H 	H 	0.5363	0.7454	0.7934	0.013
Mof_O 	O 	0.4645	0.37874	0.32894	-0.482
Mof_O 	O 	0.46451	0.3393	0.28994	-0.476
Mof_C 	C 	0.45383	0.36577	0.30203	0.401
Mof_C 	C 	0.42526	0.38238	0.28529	-0.095
Mof_C 	C 	0.41336	0.37055	0.25514	-0.054
Mof_H 	H 	0.424	0.352	0.2448	0.059
Mof_H 	H 	0.355	0.3834	0.1973	0.056
Mof_C 	C 	0.5332	0.2561	0.2712	-0.028
Mof_H 	H 	0.5506	0.273	0.2662	0.02
Mof_C 	C 	0.5132	0.2417	0.2854	-0.016
Mof_H 	H 	0.3785	0.3554	0.1964	0.048
Mof_H 	H 	0.3583	0.3899	0.1941	-0.009
Mof_H 	H 	0.3979	0.3894	0.1879	0.05
Mof_H 	H 	0.5383	0.2459	0.2932	0.017
Mof_H 	H 	0.5363	0.2454	0.2934	0.013
Mof_O 	O 	0.0355	0.12126	0.32894	-0.487
Mof_O 	O 	0.03549	0.1607	0.28994	-0.479
Mof_C 	C 	0.04617	0.13423	0.30203	0.401
Mof_C 	C 	0.07474	0.11762	0.28529	-0.097
Mof_C 	C 	0.08664	0.12945	0.25514	-0.054
Mof_H 	H 	0.076	0.148	0.2448	0.058
Mof_H 	H 	0.145	0.1166	0.1973	0.055
Mof_C 	C 	0.9668	0.2439	0.2712	-0.052
Mof_H 	H 	0.9494	0.227	0.2662	0.03
Mof_C 	C 	0.9868	0.2583	0.2854	0.058
Mof_H 	H 	0.1215	0.1446	0.1964	0.047
Mof_H 	H 	0.1417	0.1101	0.1941	-0.009
Mof_H 	H 	0.1021	0.1106	0.1879	0.049
Mof_H 	H 	0.9617	0.2541	0.2932	0.007
Mof_H 	H 	0.9637	0.2546	0.2934	0.012
Mof_O 	O 	0.0355	0.62126	0.82894	-0.485
Mof_O 	O 	0.03549	0.6607	0.78994	-0.478
Mof_C 	C 	0.04617	0.63423	0.80203	0.401
Mof_C 	C 	0.07474	0.61762	0.78529	-0.096
Mof_C 	C 	0.08664	0.62945	0.75514	-0.054
Mof_H 	H 	0.076	0.648	0.7448	0.058
Mof_H 	H 	0.145	0.6166	0.6973	0.056
Mof_C 	C 	0.9668	0.7439	0.7712	-0.052
Mof_H 	H 	0.9494	0.727	0.7662	0.03
Mof_C 	C 	0.9868	0.7583	0.7854	0.058
Mof_H 	H 	0.1215	0.6446	0.6964	0.047
Mof_H 	H 	0.1417	0.6101	0.6941	-0.009
Mof_H 	H 	0.1021	0.6106	0.6879	0.049
Mof_H 	H 	0.9617	0.7541	0.7932	0.007
Mof_H 	H 	0.9637	0.7546	0.7934	0.012
Mof_O 	O 	0.5355	0.12126	0.82894	-0.483
Mof_O 	O 	0.53549	0.1607	0.78994	-0.477
Mof_C 	C 	0.54617	0.13423	0.80203	0.401
Mof_C 	C 	0.57474	0.11762	0.78529	-0.095
Mof_C 	C 	0.58664	0.12945	0.75514	-0.054
Mof_H 	H 	0.576	0.148	0.7448	0.058
Mof_H 	H 	0.645	0.1166	0.6973	0.056
Mof_C 	C 	0.4668	0.2439	0.7712	-0.028
Mof_H 	H 	0.4494	0.227	0.7662	0.02
Mof_C 	C 	0.4868	0.2583	0.7854	-0.016
Mof_H 	H 	0.6215	0.1446	0.6964	0.048
Mof_H 	H 	0.6417	0.1101	0.6941	-0.009
Mof_H 	H 	0.6021	0.1106	0.6879	0.051
Mof_H 	H 	0.4617	0.2541	0.7932	0.017
Mof_H 	H 	0.4637	0.2546	0.7934	0.013
Mof_O 	O 	0.5355	0.62126	0.32894	-0.482
Mof_O 	O 	0.53549	0.6607	0.28994	-0.476
Mof_C 	C 	0.54617	0.63423	0.30203	0.401
Mof_C 	C 	0.57474	0.61762	0.28529	-0.095
Mof_C 	C 	0.58664	0.62945	0.25514	-0.054
Mof_H 	H 	0.576	0.648	0.2448	0.059
Mof_H 	H 	0.645	0.6166	0.1973	0.056
Mof_C 	C 	0.4668	0.7439	0.2712	-0.028
Mof_H 	H 	0.4494	0.727	0.2662	0.02
Mof_C 	C 	0.4868	0.7583	0.2854	-0.016
Mof_H 	H 	0.6215	0.6446	0.1964	0.048
Mof_H 	H 	0.6417	0.6101	0.1941	-0.009
Mof_H 	H 	0.6021	0.6106	0.1879	0.05
Mof_H 	H 	0.4617	0.7541	0.2932	0.017
Mof_H 	H 	0.4637	0.7546	0.2934	0.013
Mof_O 	O 	0.12126	0.32894	0.0355	-0.487
Mof_O 	O 	0.1607	0.28994	0.03549	-0.479
Mof_C 	C 	0.13423	0.30203	0.04617	0.401
Mof_C 	C 	0.11762	0.28529	0.07474	-0.097
Mof_C 	C 	0.12945	0.25514	0.08664	-0.054
Mof_H 	H 	0.148	0.2448	0.076	0.058
Mof_H 	H 	0.1166	0.1973	0.145	0.055
Mof_C 	C 	0.2439	0.2712	0.9668	-0.052
Mof_H 	H 	0.227	0.2662	0.9494	0.03
Mof_C 	C 	0.2583	0.2854	0.9868	0.058
Mof_H 	H 	0.1446	0.1964	0.1215	0.047
Mof_H 	H 	0.1101	0.1941	0.1417	-0.009
Mof_H 	H 	0.1106	0.1879	0.1021	0.049
Mof_H 	H 	0.2541	0.2932	0.9617	0.007
Mof_H 	H 	0.2546	0.2934	0.9637	0.012
Mof_O 	O 	0.12126	0.82894	0.5355	-0.483
Mof_O 	O 	0.1607	0.78994	0.53549	-0.477
Mof_C 	C 	0.13423	0.80203	0.54617	0.401
Mof_C 	C 	0.11762	0.78529	0.57474	-0.095
Mof_C 	C 	0.12945	0.75514	0.58664	-0.054
Mof_H 	H 	0.148	0.7448	0.576	0.058
Mof_H 	H 	0.1166	0.6973	0.645	0.056
Mof_C 	C 	0.2439	0.7712	0.4668	-0.028
Mof_H 	H 	0.227	0.7662	0.4494	0.02
Mof_C 	C 	0.2583	0.7854	0.4868	-0.016
Mof_H 	H 	0.1446	0.6964	0.6215	0.048
Mof_H 	H 	0.1101	0.6941	0.6417	-0.009
Mof_H 	H 	0.1106	0.6879	0.6021	0.051
Mof_H 	H 	0.2541	0.7932	0.4617	0.017
Mof_H 	H 	0.2546	0.7934	0.4637	0.013
Mof_O 	O 	0.62126	0.32894	0.5355	-0.482
Mof_O 	O 	0.6607	0.28994	0.53549	-0.476
Mof_C 	C 	0.63423	0.30203	0.54617	0.401
Mof_C 	C 	0.61762	0.28529	0.57474	-0.095
Mof_C 	C 	0.62945	0.25514	0.58664	-0.054
Mof_H 	H 	0.648	0.2448	0.576	0.059
Mof_H 	H 	0.6166	0.1973	0.645	0.056
Mof_C 	C 	0.7439	0.2712	0.4668	-0.028
Mof_H 	H 	0.727	0.2662	0.4494	0.02
Mof_C 	C 	0.7583	0.2854	0.4868	-0.016
Mof_H 	H 	0.6446	0.1964	0.6215	0.048
Mof_H 	H 	0.6101	0.1941	0.6417	-0.009
Mof_H 	H 	0.6106	0.1879	0.6021	0.05
Mof_H 	H 	0.7541	0.2932	0.4617	0.017
Mof_H 	H 	0.7546	0.2934	0.4637	0.013
Mof_O 	O 	0.62126	0.82894	0.0355	-0.485
Mof_O 	O 	0.6607	0.78994	0.03549	-0.478
Mof_C 	C 	0.63423	0.80203	0.04617	0.401
Mof_C 	C 	0.61762	0.78529	0.07474	-0.096
Mof_C 	C 	0.62945	0.75514	0.08664	-0.054
Mof_H 	H 	0.648	0.7448	0.076	0.058
Mof_H 	H 	0.6166	0.6973	0.145	0.056
Mof_C 	C 	0.7439	0.7712	0.9668	-0.052
Mof_H 	H 	0.727	0.7662	0.9494	0.03
Mof_C 	C 	0.7583	0.7854	0.9868	0.058
Mof_H 	H 	0.6446	0.6964	0.1215	0.047
Mof_H 	H 	0.6101	0.6941	0.1417	-0.009
Mof_H 	H 	0.6106	0.6879	0.1021	0.049
Mof_H 	H 	0.7541	0.7932	0.9617	0.007
Mof_H 	H 	0.7546	0.7934	0.9637	0.012
Mof_O 	O 	0.87874	0.32894	0.9645	-0.475
Mof_O 	O 	0.8393	0.28994	0.96451	-0.47
Mof_C 	C 	0.86577	0.30203	0.95383	0.4
Mof_C 	C 	0.88238	0.28529	0.92526	-0.091
Mof_C 	C 	0.87055	0.25514	0.91336	-0.056
Mof_H 	H 	0.852	0.2448	0.924	0.061
Mof_H 	H 	0.8834	0.1973	0.855	0.057
Mof_C 	C 	0.7561	0.2712	0.0332	-0.008
Mof_H 	H 	0.773	0.2662	0.0506	0.011
Mof_C 	C 	0.7417	0.2854	0.0132	-0.071
Mof_H 	H 	0.8554	0.1964	0.8785	0.048
Mof_H 	H 	0.8899	0.1941	0.8583	-0.009
Mof_H 	H 	0.8894	0.1879	0.8979	0.052
Mof_H 	H 	0.7459	0.2932	0.0383	0.026
Mof_H 	H 	0.7454	0.2934	0.0363	0.014
Mof_O 	O 	0.87874	0.82894	0.4645	-0.481
Mof_O 	O 	0.8393	0.78994	0.46451	-0.476
Mof_C 	C 	0.86577	0.80203	0.45383	0.401
Mof_C 	C 	0.88238	0.78529	0.42526	-0.093
Mof_C 	C 	0.87055	0.75514	0.41336	-0.055
Mof_H 	H 	0.852	0.7448	0.424	0.059
Mof_H 	H 	0.8834	0.6973	0.355	0.056
Mof_C 	C 	0.7561	0.7712	0.5332	-0.028
Mof_H 	H 	0.773	0.7662	0.5506	0.02
Mof_C 	C 	0.7417	0.7854	0.5132	-0.016
Mof_H 	H 	0.8554	0.6964	0.3785	0.048
Mof_H 	H 	0.8899	0.6941	0.3583	-0.009
Mof_H 	H 	0.8894	0.6879	0.3979	0.05
Mof_H 	H 	0.7459	0.7932	0.5383	0.017
Mof_H 	H 	0.7454	0.7934	0.5363	0.013
Mof_O 	O 	0.37874	0.32894	0.4645	-0.482
Mof_O 	O 	0.3393	0.28994	0.46451	-0.476
Mof_C 	C 	0.36577	0.30203	0.45383	0.401
Mof_C 	C 	0.38238	0.28529	0.42526	-0.095
Mof_C 	C 	0.37055	0.25514	0.41336	-0.054
Mof_H 	H 	0.352	0.2448	0.424	0.059
Mof_H 	H 	0.3834	0.1973	0.355	0.056
Mof_C 	C 	0.2561	0.2712	0.5332	-0.028
Mof_H 	H 	0.273	0.2662	0.5506	0.02
Mof_C 	C 	0.2417	0.2854	0.5132	-0.016
Mof_H 	H 	0.3554	0.1964	0.3785	0.048
Mof_H 	H 	0.3899	0.1941	0.3583	-0.009
Mof_H 	H 	0.3894	0.1879	0.3979	0.05
Mof_H 	H 	0.2459	0.2932	0.5383	0.017
Mof_H 	H 	0.2454	0.2934	0.5363	0.013
Mof_O 	O 	0.37874	0.82894	0.9645	-0.476
Mof_O 	O 	0.3393	0.78994	0.96451	-0.471
Mof_C 	C 	0.36577	0.80203	0.95383	0.4
Mof_C 	C 	0.38238	0.78529	0.92526	-0.092
Mof_C 	C 	0.37055	0.75514	0.91336	-0.055
Mof_H 	H 	0.352	0.7448	0.924	0.06
Mof_H 	H 	0.3834	0.6973	0.855	0.056
Mof_C 	C 	0.2561	0.7712	0.0332	-0.008
Mof_H 	H 	0.273	0.7662	0.0506	0.011
Mof_C 	C 	0.2417	0.7854	0.0132	-0.071
Mof_H 	H 	0.3554	0.6964	0.8785	0.048
Mof_H 	H 	0.3899	0.6941	0.8583	-0.009
Mof_H 	H 	0.3894	0.6879	0.8979	0.052
Mof_H 	H 	0.2459	0.7932	0.0383	0.026
Mof_H 	H 	0.2454	0.7934	0.0363	0.014
Mof_O 	O 	0.87874	0.67106	0.0355	-0.485
Mof_O 	O 	0.8393	0.71006	0.03549	-0.478
Mof_C 	C 	0.86577	0.69797	0.04617	0.401
Mof_C 	C 	0.88238	0.71471	0.07474	-0.095
Mof_C 	C 	0.87055	0.74486	0.08664	-0.055
Mof_H 	H 	0.852	0.7552	0.076	0.059
Mof_H 	H 	0.8834	0.8027	0.145	0.056
Mof_C 	C 	0.7561	0.7288	0.9668	-0.052
Mof_H 	H 	0.773	0.7338	0.9494	0.03
Mof_C 	C 	0.7417	0.7146	0.9868	0.058
Mof_H 	H 	0.8554	0.8036	0.1215	0.048
Mof_H 	H 	0.8899	0.8059	0.1417	-0.009
Mof_H 	H 	0.8894	0.8121	0.1021	0.049
Mof_H 	H 	0.7459	0.7068	0.9617	0.006
Mof_H 	H 	0.7454	0.7066	0.9637	0.012
Mof_O 	O 	0.87874	0.17106	0.5355	-0.481
Mof_O 	O 	0.8393	0.21006	0.53549	-0.476
Mof_C 	C 	0.86577	0.19797	0.54617	0.401
Mof_C 	C 	0.88238	0.21471	0.57474	-0.094
Mof_C 	C 	0.87055	0.24486	0.58664	-0.055
Mof_H 	H 	0.852	0.2552	0.576	0.059
Mof_H 	H 	0.8834	0.3027	0.645	0.056
Mof_C 	C 	0.7561	0.2288	0.4668	-0.028
Mof_H 	H 	0.773	0.2338	0.4494	0.02
Mof_C 	C 	0.7417	0.2146	0.4868	-0.016
Mof_H 	H 	0.8554	0.3036	0.6215	0.048
Mof_H 	H 	0.8899	0.3059	0.6417	-0.009
Mof_H 	H 	0.8894	0.3121	0.6021	0.05
Mof_H 	H 	0.7459	0.2068	0.4617	0.017
Mof_H 	H 	0.7454	0.2066	0.4637	0.013
Mof_O 	O 	0.37874	0.67106	0.5355	-0.482
Mof_O 	O 	0.3393	0.71006	0.53549	-0.476
Mof_C 	C 	0.36577	0.69797	0.54617	0.401
Mof_C 	C 	0.38238	0.71471	0.57474	-0.095
Mof_C 	C 	0.37055	0.74486	0.58664	-0.054
Mof_H 	H 	0.352	0.7552	0.576	0.059
Mof_H 	H 	0.3834	0.8027	0.645	0.056
Mof_C 	C 	0.2561	0.7288	0.4668	-0.028
Mof_H 	H 	0.273	0.7338	0.4494	0.02
Mof_C 	C 	0.2417	0.7146	0.4868	-0.016
Mof_H 	H 	0.3554	0.8036	0.6215	0.048
Mof_H 	H 	0.3899	0.8059	0.6417	-0.009
Mof_H 	H 	0.3894	0.8121	0.6021	0.051
Mof_H 	H 	0.2459	0.7068	0.4617	0.017
Mof_H 	H 	0.2454	0.7066	0.4637	0.013
Mof_O 	O 	0.37874	0.17106	0.0355	-0.486
Mof_O 	O 	0.3393	0.21006	0.03549	-0.478
Mof_C 	C 	0.36577	0.19797	0.04617	0.401
Mof_C 	C 	0.38238	0.21471	0.07474	-0.096
Mof_C 	C 	0.37055	0.24486	0.08664	-0.054
Mof_H 	H 	0.352	0.2552	0.076	0.058
Mof_H 	H 	0.3834	0.3027	0.145	0.056
Mof_C 	C 	0.2561	0.2288	0.9668	-0.052
Mof_H 	H 	0.273	0.2338	0.9494	0.03
Mof_C 	C 	0.2417	0.2146	0.9868	0.058
Mof_H 	H 	0.3554	0.3036	0.1215	0.047
Mof_H 	H 	0.3899	0.3059	0.1417	-0.009
Mof_H 	H 	0.3894	0.3121	0.1021	0.049
Mof_H 	H 	0.2459	0.2068	0.9617	0.006
Mof_H 	H 	0.2454	0.2066	0.9637	0.012
Mof_O 	O 	0.12126	0.67106	0.9645	-0.477
Mof_O 	O 	0.1607	0.71006	0.96451	-0.471
Mof_C 	C 	0.13423	0.69797	0.95383	0.4
Mof_C 	C 	0.11762	0.71471	0.92526	-0.093
Mof_C 	C 	0.12945	0.74486	0.91336	-0.055
Mof_H 	H 	0.148	0.7552	0.924	0.06
Mof_H 	H 	0.1166	0.8027	0.855	0.056
Mof_C 	C 	0.2439	0.7288	0.0332	-0.008
Mof_H 	H 	0.227	0.7338	0.0506	0.011
Mof_C 	C 	0.2583	0.7146	0.0132	-0.071
Mof_H 	H 	0.1446	0.8036	0.8785	0.048
Mof_H 	H 	0.1101	0.8059	0.8583	-0.009
Mof_H 	H 	0.1106	0.8121	0.8979	0.053
Mof_H 	H 	0.2541	0.7068	0.0383	0.026
Mof_H 	H 	0.2546	0.7066	0.0363	0.014
Mof_O 	O 	0.12126	0.17106	0.4645	-0.483
Mof_O 	O 	0.1607	0.21006	0.46451	-0.477
Mof_C 	C 	0.13423	0.19797	0.45383	0.401
Mof_C 	C 	0.11762	0.21471	0.42526	-0.096
Mof_C 	C 	0.12945	0.24486	0.41336	-0.054
Mof_H 	H 	0.148	0.2552	0.424	0.058
Mof_H 	H 	0.1166	0.3027	0.355	0.056
Mof_C 	C 	0.2439	0.2288	0.5332	-0.028
Mof_H 	H 	0.227	0.2338	0.5506	0.02
Mof_C 	C 	0.2583	0.2146	0.5132	-0.016
Mof_H 	H 	0.1446	0.3036	0.3785	0.048
Mof_H 	H 	0.1101	0.3059	0.3583	-0.009
Mof_H 	H 	0.1106	0.3121	0.3979	0.051
Mof_H 	H 	0.2541	0.2068	0.5383	0.017
Mof_H 	H 	0.2546	0.2066	0.5363	0.013
Mof_O 	O 	0.62126	0.67106	0.4645	-0.482
Mof_O 	O 	0.6607	0.71006	0.46451	-0.476
Mof_C 	C 	0.63423	0.69797	0.45383	0.401
Mof_C 	C 	0.61762	0.71471	0.42526	-0.095
Mof_C 	C 	0.62945	0.74486	0.41336	-0.054
Mof_H 	H 	0.648	0.7552	0.424	0.059
Mof_H 	H 	0.6166	0.8027	0.355	0.056
Mof_C 	C 	0.7439	0.7288	0.5332	-0.028
Mof_H 	H 	0.727	0.7338	0.5506	0.02
Mof_C 	C 	0.7583	0.7146	0.5132	-0.016
Mof_H 	H 	0.6446	0.8036	0.3785	0.048
Mof_H 	H 	0.6101	0.8059	0.3583	-0.009
Mof_H 	H 	0.6106	0.8121	0.3979	0.051
Mof_H 	H 	0.7541	0.7068	0.5383	0.017
Mof_H 	H 	0.7546	0.7066	0.5363	0.013
Mof_O 	O 	0.62126	0.17106	0.9645	-0.477
Mof_O 	O 	0.6607	0.21006	0.96451	-0.471
Mof_C 	C 	0.63423	0.19797	0.95383	0.4
Mof_C 	C 	0.61762	0.21471	0.92526	-0.092
Mof_C 	C 	0.62945	0.24486	0.91336	-0.055
Mof_H 	H 	0.648	0.2552	0.924	0.06
Mof_H 	H 	0.6166	0.3027	0.855	0.056
Mof_C 	C 	0.7439	0.2288	0.0332	-0.008
Mof_H 	H 	0.727	0.2338	0.0506	0.011
Mof_C 	C 	0.7583	0.2146	0.0132	-0.071
Mof_H 	H 	0.6446	0.3036	0.8785	0.048
Mof_H 	H 	0.6101	0.3059	0.8583	-0.009
Mof_H 	H 	0.6106	0.3121	0.8979	0.052
Mof_H 	H 	0.7541	0.2068	0.0383	0.026
Mof_H 	H 	0.7546	0.2066	0.0363	0.014
Mof_O 	O 	0.32894	0.9645	0.87874	-0.475
Mof_O 	O 	0.28994	0.96451	0.8393	-0.47
Mof_C 	C 	0.30203	0.95383	0.86577	0.4
Mof_C 	C 	0.28529	0.92526	0.88238	-0.091
Mof_C 	C 	0.25514	0.91336	0.87055	-0.056
Mof_H 	H 	0.2448	0.924	0.852	0.061
Mof_H 	H 	0.1973	0.855	0.8834	0.057
Mof_C 	C 	0.2712	0.0332	0.7561	-0.008
Mof_H 	H 	0.2662	0.0506	0.773	0.011
Mof_C 	C 	0.2854	0.0132	0.7417	-0.071
Mof_H 	H 	0.1964	0.8785	0.8554	0.048
Mof_H 	H 	0.1941	0.8583	0.8899	-0.009
Mof_H 	H 	0.1879	0.8979	0.8894	0.052
Mof_H 	H 	0.2932	0.0383	0.7459	0.026
Mof_H 	H 	0.2934	0.0363	0.7454	0.014
Mof_O 	O 	0.32894	0.4645	0.37874	-0.482
Mof_O 	O 	0.28994	0.46451	0.3393	-0.476
Mof_C 	C 	0.30203	0.45383	0.36577	0.401
Mof_C 	C 	0.28529	0.42526	0.38238	-0.095
Mof_C 	C 	0.25514	0.41336	0.37055	-0.054
Mof_H 	H 	0.2448	0.424	0.352	0.059
Mof_H 	H 	0.1973	0.355	0.3834	0.056
Mof_C 	C 	0.2712	0.5332	0.2561	-0.028
Mof_H 	H 	0.2662	0.5506	0.273	0.02
Mof_C 	C 	0.2854	0.5132	0.2417	-0.016
Mof_H 	H 	0.1964	0.3785	0.3554	0.048
Mof_H 	H 	0.1941	0.3583	0.3899	-0.009
Mof_H 	H 	0.1879	0.3979	0.3894	0.05
Mof_H 	H 	0.2932	0.5383	0.2459	0.017
Mof_H 	H 	0.2934	0.5363	0.2454	0.013
Mof_O 	O 	0.82894	0.9645	0.37874	-0.476
Mof_O 	O 	0.78994	0.96451	0.3393	-0.471
Mof_C 	C 	0.80203	0.95383	0.36577	0.4
Mof_C 	C 	0.78529	0.92526	0.38238	-0.092
Mof_C 	C 	0.75514	0.91336	0.37055	-0.055
Mof_H 	H 	0.7448	0.924	0.352	0.06
Mof_H 	H 	0.6973	0.855	0.3834	0.056
Mof_C 	C 	0.7712	0.0332	0.2561	-0.008
Mof_H 	H 	0.7662	0.0506	0.273	0.011
Mof_C 	C 	0.7854	0.0132	0.2417	-0.071
Mof_H 	H 	0.6964	0.8785	0.3554	0.048
Mof_H 	H 	0.6941	0.8583	0.3899	-0.009
Mof_H 	H 	0.6879	0.8979	0.3894	0.052
Mof_H 	H 	0.7932	0.0383	0.2459	0.026
Mof_H 	H 	0.7934	0.0363	0.2454	0.014
Mof_O 	O 	0.82894	0.4645	0.87874	-0.481
Mof_O 	O 	0.78994	0.46451	0.8393	-0.476
Mof_C 	C 	0.80203	0.45383	0.86577	0.401
Mof_C 	C 	0.78529	0.42526	0.88238	-0.093
Mof_C 	C 	0.75514	0.41336	0.87055	-0.055
Mof_H 	H 	0.7448	0.424	0.852	0.059
Mof_H 	H 	0.6973	0.355	0.8834	0.056
Mof_C 	C 	0.7712	0.5332	0.7561	-0.028
Mof_H 	H 	0.7662	0.5506	0.773	0.02
Mof_C 	C 	0.7854	0.5132	0.7417	-0.016
Mof_H 	H 	0.6964	0.3785	0.8554	0.048
Mof_H 	H 	0.6941	0.3583	0.8899	-0.009
Mof_H 	H 	0.6879	0.3979	0.8894	0.05
Mof_H 	H 	0.7932	0.5383	0.7459	0.017
Mof_H 	H 	0.7934	0.5363	0.7454	0.013
Mof_O 	O 	0.32894	0.0355	0.12126	-0.487
Mof_O 	O 	0.28994	0.03549	0.1607	-0.479
Mof_C 	C 	0.30203	0.04617	0.13423	0.401
Mof_C 	C 	0.28529	0.07474	0.11762	-0.097
Mof_C 	C 	0.25514	0.08664	0.12945	-0.054
Mof_H 	H 	0.2448	0.076	0.148	0.058
Mof_H 	H 	0.1973	0.145	0.1166	0.055
Mof_C 	C 	0.2712	0.9668	0.2439	-0.052
Mof_H 	H 	0.2662	0.9494	0.227	0.03
Mof_C 	C 	0.2854	0.9868	0.2583	0.058
Mof_H 	H 	0.1964	0.1215	0.1446	0.047
Mof_H 	H 	0.1941	0.1417	0.1101	-0.009
Mof_H 	H 	0.1879	0.1021	0.1106	0.049
Mof_H 	H 	0.2932	0.9617	0.2541	0.007
Mof_H 	H 	0.2934	0.9637	0.2546	0.012
Mof_O 	O 	0.32894	0.5355	0.62126	-0.482
Mof_O 	O 	0.28994	0.53549	0.6607	-0.476
Mof_C 	C 	0.30203	0.54617	0.63423	0.401
Mof_C 	C 	0.28529	0.57474	0.61762	-0.095
Mof_C 	C 	0.25514	0.58664	0.62945	-0.054
Mof_H 	H 	0.2448	0.576	0.648	0.059
Mof_H 	H 	0.1973	0.645	0.6166	0.056
Mof_C 	C 	0.2712	0.4668	0.7439	-0.028
Mof_H 	H 	0.2662	0.4494	0.727	0.02
Mof_C 	C 	0.2854	0.4868	0.7583	-0.016
Mof_H 	H 	0.1964	0.6215	0.6446	0.048
Mof_H 	H 	0.1941	0.6417	0.6101	-0.009
Mof_H 	H 	0.1879	0.6021	0.6106	0.05
Mof_H 	H 	0.2932	0.4617	0.7541	0.017
Mof_H 	H 	0.2934	0.4637	0.7546	0.013
Mof_O 	O 	0.82894	0.0355	0.62126	-0.485
Mof_O 	O 	0.78994	0.03549	0.6607	-0.478
Mof_C 	C 	0.80203	0.04617	0.63423	0.401
Mof_C 	C 	0.78529	0.07474	0.61762	-0.096
Mof_C 	C 	0.75514	0.08664	0.62945	-0.054
Mof_H 	H 	0.7448	0.076	0.648	0.058
Mof_H 	H 	0.6973	0.145	0.6166	0.056
Mof_C 	C 	0.7712	0.9668	0.7439	-0.052
Mof_H 	H 	0.7662	0.9494	0.727	0.03
Mof_C 	C 	0.7854	0.9868	0.7583	0.058
Mof_H 	H 	0.6964	0.1215	0.6446	0.047
Mof_H 	H 	0.6941	0.1417	0.6101	-0.009
Mof_H 	H 	0.6879	0.1021	0.6106	0.049
Mof_H 	H 	0.7932	0.9617	0.7541	0.007
Mof_H 	H 	0.7934	0.9637	0.7546	0.012
Mof_O 	O 	0.82894	0.5355	0.12126	-0.483
Mof_O 	O 	0.78994	0.53549	0.1607	-0.477
Mof_C 	C 	0.80203	0.54617	0.13423	0.401
Mof_C 	C 	0.78529	0.57474	0.11762	-0.095
Mof_C 	C 	0.75514	0.58664	0.12945	-0.054
Mof_H 	H 	0.7448	0.576	0.148	0.058
Mof_H 	H 	0.6973	0.645	0.1166	0.056
Mof_C 	C 	0.7712	0.4668	0.2439	-0.028
Mof_H 	H 	0.7662	0.4494	0.227	0.02
Mof_C 	C 	0.7854	0.4868	0.2583	-0.016
Mof_H 	H 	0.6964	0.6215	0.1446	0.048
Mof_H 	H 	0.6941	0.6417	0.1101	-0.009
Mof_H 	H 	0.6879	0.6021	0.1106	0.051
Mof_H 	H 	0.7932	0.4617	0.2541	0.017
Mof_H 	H 	0.7934	0.4637	0.2546	0.013
Mof_O 	O 	0.67106	0.9645	0.12126	-0.477
Mof_O 	O 	0.71006	0.96451	0.1607	-0.471
Mof_C 	C 	0.69797	0.95383	0.13423	0.4
Mof_C 	C 	0.71471	0.92526	0.11762	-0.093
Mof_C 	C 	0.74486	0.91336	0.12945	-0.055
Mof_H 	H 	0.7552	0.924	0.148	0.06
Mof_H 	H 	0.8027	0.855	0.1166	0.056
Mof_C 	C 	0.7288	0.0332	0.2439	-0.008
Mof_H 	H 	0.7338	0.0506	0.227	0.011
Mof_C 	C 	0.7146	0.0132	0.2583	-0.071
Mof_H 	H 	0.8036	0.8785	0.1446	0.048
Mof_H 	H 	0.8059	0.8583	0.1101	-0.009
Mof_H 	H 	0.8121	0.8979	0.1106	0.053
Mof_H 	H 	0.7068	0.0383	0.2541	0.026
Mof_H 	H 	0.7066	0.0363	0.2546	0.014
Mof_O 	O 	0.67106	0.4645	0.62126	-0.482
Mof_O 	O 	0.71006	0.46451	0.6607	-0.476
Mof_C 	C 	0.69797	0.45383	0.63423	0.401
Mof_C 	C 	0.71471	0.42526	0.61762	-0.095
Mof_C 	C 	0.74486	0.41336	0.62945	-0.054
Mof_H 	H 	0.7552	0.424	0.648	0.059
Mof_H 	H 	0.8027	0.355	0.6166	0.056
Mof_C 	C 	0.7288	0.5332	0.7439	-0.028
Mof_H 	H 	0.7338	0.5506	0.727	0.02
Mof_C 	C 	0.7146	0.5132	0.7583	-0.016
Mof_H 	H 	0.8036	0.3785	0.6446	0.048
Mof_H 	H 	0.8059	0.3583	0.6101	-0.009
Mof_H 	H 	0.8121	0.3979	0.6106	0.051
Mof_H 	H 	0.7068	0.5383	0.7541	0.017
Mof_H 	H 	0.7066	0.5363	0.7546	0.013
Mof_O 	O 	0.17106	0.9645	0.62126	-0.477
Mof_O 	O 	0.21006	0.96451	0.6607	-0.471
Mof_C 	C 	0.19797	0.95383	0.63423	0.4
Mof_C 	C 	0.21471	0.92526	0.61762	-0.092
Mof_C 	C 	0.24486	0.91336	0.62945	-0.055
Mof_H 	H 	0.2552	0.924	0.648	0.06
Mof_H 	H 	0.3027	0.855	0.6166	0.056
Mof_C 	C 	0.2288	0.0332	0.7439	-0.008
Mof_H 	H 	0.2338	0.0506	0.727	0.011
Mof_C 	C 	0.2146	0.0132	0.7583	-0.071
Mof_H 	H 	0.3036	0.8785	0.6446	0.048
Mof_H 	H 	0.3059	0.8583	0.6101	-0.009
Mof_H 	H 	0.3121	0.8979	0.6106	0.052
Mof_H 	H 	0.2068	0.0383	0.7541	0.026
Mof_H 	H 	0.2066	0.0363	0.7546	0.014
Mof_O 	O 	0.17106	0.4645	0.12126	-0.483
Mof_O 	O 	0.21006	0.46451	0.1607	-0.477
Mof_C 	C 	0.19797	0.45383	0.13423	0.401
Mof_C 	C 	0.21471	0.42526	0.11762	-0.096
Mof_C 	C 	0.24486	0.41336	0.12945	-0.054
Mof_H 	H 	0.2552	0.424	0.148	0.058
Mof_H 	H 	0.3027	0.355	0.1166	0.056
Mof_C 	C 	0.2288	0.5332	0.2439	-0.028
Mof_H 	H 	0.2338	0.5506	0.227	0.02
Mof_C 	C 	0.2146	0.5132	0.2583	-0.016
Mof_H 	H 	0.3036	0.3785	0.1446	0.048
Mof_H 	H 	0.3059	0.3583	0.1101	-0.009
Mof_H 	H 	0.3121	0.3979	0.1106	0.051
Mof_H 	H 	0.2068	0.5383	0.2541	0.017
Mof_H 	H 	0.2066	0.5363	0.2546	0.013
Mof_O 	O 	0.67106	0.0355	0.87874	-0.485
Mof_O 	O 	0.71006	0.03549	0.8393	-0.478
Mof_C 	C 	0.69797	0.04617	0.86577	0.401
Mof_C 	C 	0.71471	0.07474	0.88238	-0.095
Mof_C 	C 	0.74486	0.08664	0.87055	-0.055
Mof_H 	H 	0.7552	0.076	0.852	0.059
Mof_H 	H 	0.8027	0.145	0.8834	0.056
Mof_C 	C 	0.7288	0.9668	0.7561	-0.052
Mof_H 	H 	0.7338	0.9494	0.773	0.03
Mof_C 	C 	0.7146	0.9868	0.7417	0.058
Mof_H 	H 	0.8036	0.1215	0.8554	0.048
Mof_H 	H 	0.8059	0.1417	0.8899	-0.009
Mof_H 	H 	0.8121	0.1021	0.8894	0.049
Mof_H 	H 	0.7068	0.9617	0.7459	0.006
Mof_H 	H 	0.7066	0.9637	0.7454	0.012
Mof_O 	O 	0.67106	0.5355	0.37874	-0.482
Mof_O 	O 	0.71006	0.53549	0.3393	-0.476
Mof_C 	C 	0.69797	0.54617	0.36577	0.401
Mof_C 	C 	0.71471	0.57474	0.38238	-0.095
Mof_C 	C 	0.74486	0.58664	0.37055	-0.054
Mof_H 	H 	0.7552	0.576	0.352	0.059
Mof_H 	H 	0.8027	0.645	0.3834	0.056
Mof_C 	C 	0.7288	0.4668	0.2561	-0.028
Mof_H 	H 	0.7338	0.4494	0.273	0.02
Mof_C 	C 	0.7146	0.4868	0.2417	-0.016
Mof_H 	H 	0.8036	0.6215	0.3554	0.048
Mof_H 	H 	0.8059	0.6417	0.3899	-0.009
Mof_H 	H 	0.8121	0.6021	0.3894	0.051
Mof_H 	H 	0.7068	0.4617	0.2459	0.017
Mof_H 	H 	0.7066	0.4637	0.2454	0.013
Mof_O 	O 	0.17106	0.0355	0.37874	-0.486
Mof_O 	O 	0.21006	0.03549	0.3393	-0.478
Mof_C 	C 	0.19797	0.04617	0.36577	0.401
Mof_C 	C 	0.21471	0.07474	0.38238	-0.096
Mof_C 	C 	0.24486	0.08664	0.37055	-0.054
Mof_H 	H 	0.2552	0.076	0.352	0.058
Mof_H 	H 	0.3027	0.145	0.3834	0.056
Mof_C 	C 	0.2288	0.9668	0.2561	-0.052
Mof_H 	H 	0.2338	0.9494	0.273	0.03
Mof_C 	C 	0.2146	0.9868	0.2417	0.058
Mof_H 	H 	0.3036	0.1215	0.3554	0.047
Mof_H 	H 	0.3059	0.1417	0.3899	-0.009
Mof_H 	H 	0.3121	0.1021	0.3894	0.049
Mof_H 	H 	0.2068	0.9617	0.2459	0.006
Mof_H 	H 	0.2066	0.9637	0.2454	0.012
Mof_O 	O 	0.17106	0.5355	0.87874	-0.481
Mof_O 	O 	0.21006	0.53549	0.8393	-0.476
Mof_C 	C 	0.19797	0.54617	0.86577	0.401
Mof_C 	C 	0.21471	0.57474	0.88238	-0.094
Mof_C 	C 	0.24486	0.58664	0.87055	-0.055
Mof_H 	H 	0.2552	0.576	0.852	0.059
Mof_H 	H 	0.3027	0.645	0.8834	0.056
Mof_C 	C 	0.2288	0.4668	0.7561	-0.028
Mof_H 	H 	0.2338	0.4494	0.773	0.02
Mof_C 	C 	0.2146	0.4868	0.7417	-0.016
Mof_H 	H 	0.3036	0.6215	0.8554	0.048
Mof_H 	H 	0.3059	0.6417	0.8899	-0.009
Mof_H 	H 	0.3121	0.6021	0.8894	0.05
Mof_H 	H 	0.2068	0.4617	0.7459	0.017
Mof_H 	H 	0.2066	0.4637	0.7454	0.013
Mof_Zn	Zn	0.86045	0	0.63955	1.19
Mof_Zn	Zn	0.80871	0	0.69129	1.215
Mof_N 	N 	0.77228	-6.34032e-33	0.72772	-0.202
Mof_Zn	Zn	0.86045	0.5	0.13955	1.194
Mof_Zn	Zn	0.80871	0.5	0.19129	1.218
Mof_N 	N 	0.77228	0.5	0.22772	-0.19
Mof_Zn	Zn	0.13955	0	0.63955	1.189
Mof_Zn	Zn	0.19129	0	0.69129	1.215
Mof_N 	N 	0.22772	-6.34032e-33	0.72772	-0.202
Mof_Zn	Zn	0.13955	0.5	0.13955	1.193
Mof_Zn	Zn	0.19129	0.5	0.19129	1.218
Mof_N 	N 	0.22772	0.5	0.22772	-0.19
Mof_Zn	Zn	0.63955	0.5	0.63955	1.194
Mof_Zn	Zn	0.69129	0.5	0.69129	1.218
Mof_N 	N 	0.72772	0.5	0.72772	-0.19
Mof_Zn	Zn	0.13955	0	0.36045	1.189
Mof_Zn	Zn	0.19129	0	0.30871	1.215
Mof_N 	N 	0.22772	0	0.27228	-0.202
Mof_Zn	Zn	0.13955	0.5	0.86045	1.194
Mof_Zn	Zn	0.19129	0.5	0.80871	1.218
Mof_N 	N 	0.22772	0.5	0.77228	-0.19
Mof_Zn	Zn	0.63955	6.34032e-33	0.86045	1.19
Mof_Zn	Zn	0.69129	0	0.80871	1.215
Mof_N 	N 	0.72772	0	0.77228	-0.202
Mof_Zn	Zn	0.86045	0	0.36045	1.19
Mof_Zn	Zn	0.80871	0	0.30871	1.215
Mof_N 	N 	0.77228	0	0.27228	-0.202
Mof_Zn	Zn	0.86045	0.5	0.86045	1.194
Mof_Zn	Zn	0.80871	0.5	0.80871	1.218
Mof_N 	N 	0.77228	0.5	0.77228	-0.19
Mof_Zn	Zn	0.63955	0.86045	-0	1.19
Mof_Zn	Zn	0.69129	0.80871	-0	1.215
Mof_N 	N 	0.72772	0.77228	-0	-0.202
Mof_Zn	Zn	0.63955	0.36045	0.5	1.194
Mof_Zn	Zn	0.69129	0.30871	0.5	1.218
Mof_N 	N 	0.72772	0.27228	0.5	-0.19
Mof_Zn	Zn	0.63955	0.13955	-0	1.189
Mof_Zn	Zn	0.69129	0.19129	-0	1.215
Mof_N 	N 	0.72772	0.22772	-0	-0.202
Mof_Zn	Zn	0.63955	0.63955	0.5	1.194
Mof_Zn	Zn	0.69129	0.69129	0.5	1.218
Mof_N 	N 	0.72772	0.72772	0.5	-0.19
Mof_Zn	Zn	0.36045	0.13955	-0	1.189
Mof_Zn	Zn	0.30871	0.19129	-0	1.215
Mof_N 	N 	0.27228	0.22772	-0	-0.202
Mof_Zn	Zn	0.36045	0.63955	0.5	1.194
Mof_Zn	Zn	0.30871	0.69129	0.5	1.218
Mof_N 	N 	0.27228	0.72772	0.5	-0.19
Mof_Zn	Zn	0.86045	0.63955	-0	1.19
Mof_Zn	Zn	0.80871	0.69129	-0	1.215
Mof_N 	N 	0.77228	0.72772	-0	-0.202
Mof_Zn	Zn	0.36045	0.86045	-0	1.19
Mof_Zn	Zn	0.30871	0.80871	-0	1.215
Mof_N 	N 	0.27228	0.77228	-0	-0.202
Mof_Zn	Zn	0.36045	0.36045	0.5	1.194
Mof_Zn	Zn	0.30871	0.30871	0.5	1.218
Mof_N 	N 	0.27228	0.27228	0.5	-0.19
Mof_Zn	Zn	0.86045	0.86045	0.5	1.194
Mof_Zn	Zn	0.80871	0.80871	0.5	1.218
Mof_N 	N 	0.77228	0.77228	0.5	-0.19
Mof_Zn	Zn	3.22617e-33	0.63955	0.86045	1.19
Mof_Zn	Zn	-3.30815e-33	0.69129	0.80871	1.215
Mof_N 	N 	-3.44474e-33	0.72772	0.77228	-0.202
Mof_Zn	Zn	0.5	0.63955	0.36045	1.194
Mof_Zn	Zn	0.5	0.69129	0.30871	1.218
Mof_N 	N 	0.5	0.72772	0.27228	-0.19
Mof_Zn	Zn	5.27847e-33	0.63955	0.13955	1.189
Mof_Zn	Zn	1.6568e-32	0.69129	0.19129	1.215
Mof_N 	N 	8.77922e-33	0.72772	0.22772	-0.202
Mof_Zn	Zn	0.5	0.63955	0.63955	1.194
Mof_Zn	Zn	0.5	0.69129	0.69129	1.218
Mof_N 	N 	0.5	0.72772	0.72772	-0.19
Mof_Zn	Zn	2.10831e-33	0.36045	0.13955	1.189
Mof_Zn	Zn	7.17223e-34	0.30871	0.19129	1.215
Mof_N 	N 	5.60906e-33	0.27228	0.22772	-0.202
Mof_Zn	Zn	8.73825e-33	0.86045	0.63955	1.19
Mof_Zn	Zn	2.59192e-33	0.80871	0.69129	1.215
Mof_N 	N 	-3.61181e-33	0.77228	0.72772	-0.202
Mof_Zn	Zn	0.5	0.36045	0.63955	1.194
Mof_Zn	Zn	0.5	0.30871	0.69129	1.218
Mof_N 	N 	0.5	0.27228	0.72772	-0.19
Mof_Zn	Zn	3.22617e-33	0.36045	0.86045	1.19
Mof_Zn	Zn	-3.30815e-33	0.30871	0.80871	1.215
Mof_N 	N 	9.23591e-33	0.27228	0.77228	-0.202
Mof_Zn	Zn	0.5	0.36045	0.36045	1.194
Mof_Zn	Zn	0.5	0.30871	0.30871	1.218
Mof_N 	N 	0.5	0.27228	0.27228	-0.19
Mof_Zn	Zn	0.5	0.86045	0.86045	1.194
Mof_Zn	Zn	0.5	0.80871	0.80871	1.218
Mof_N 	N 	0.5	0.77228	0.77228	-0.19
Mof_Zn	Zn	4.52163e-33	0.86045	0.36045	1.19
Mof_Zn	Zn	-2.01268e-33	0.80871	0.30871	1.215
Mof_N 	N 	1.05314e-32	0.77228	0.27228	-0.202
Mof_Zn	Zn	1.35147e-33	0.13955	0.36045	1.189
Mof_Zn	Zn	-2.01268e-33	0.19129	0.30871	1.215
Mof_N 	N 	4.19105e-33	0.22772	0.27228	-0.202
Mof_Zn	Zn	0.5	0.13955	0.86045	1.194
Mof_Zn	Zn	0.5	0.19129	0.80871	1.218
Mof_N 	N 	0.5	0.22772	0.77228	-0.19
Mof_Zn	Zn	2.39793e-33	0.13955	0.63955	1.189
Mof_Zn	Zn	1.52726e-32	0.19129	0.69129	1.215
Mof_N 	N 	9.06884e-33	0.22772	0.72772	-0.202
Mof_Zn	Zn	0.5	0.13955	0.13955	1.193
Mof_Zn	Zn	0.5	0.19129	0.19129	1.218
Mof_N 	N 	0.5	0.22772	0.22772	-0.19
Mof_Zn	Zn	0.5	0.86045	0.13955	1.194
Mof_Zn	Zn	0.5	0.80871	0.19129	1.218
Mof_N 	N 	0.5	0.77228	0.22772	-0.19
Mof_Zn	Zn	0.86045	0.13955	0.5	1.194
Mof_Zn	Zn	0.80871	0.19129	0.5	1.218
Mof_N 	N 	0.77228	0.22772	0.5	-0.19
Mof_Zn	Zn	0.13955	0.63955	-0	1.189
Mof_Zn	Zn	0.19129	0.69129	-0	1.215
Mof_N 	N 	0.22772	0.72772	-0	-0.202
Mof_Zn	Zn	0.13955	0.13955	0.5	1.193
Mof_Zn	Zn	0.19129	0.19129	0.5	1.218
Mof_N 	N 	0.22772	0.22772	0.5	-0.19
Mof_Zn	Zn	0.13955	0.36045	-0	1.189
Mof_Zn	Zn	0.19129	0.30871	-0	1.215
Mof_N 	N 	0.22772	0.27228	-0	-0.202
Mof_Zn	Zn	0.13955	0.86045	0.5	1.194
Mof_Zn	Zn	0.19129	0.80871	0.5	1.218
Mof_N 	N 	0.22772	0.77228	0.5	-0.19
Mof_Zn	Zn	0.86045	0.36045	-0	1.19
Mof_Zn	Zn	0.80871	0.30871	-0	1.215
Mof_N 	N 	0.77228	0.27228	-0	-0.202
Mof_Zn	Zn	0.63955	0	0.13955	1.189
Mof_Zn	Zn	0.69129	1.58508e-33	0.19129	1.215
Mof_N 	N 	0.72772	-1.58508e-33	0.22772	-0.202
Mof_Zn	Zn	0.63955	0.5	0.36045	1.194
Mof_Zn	Zn	0.69129	0.5	0.30871	1.218
Mof_N 	N 	0.72772	0.5	0.27228	-0.19
Mof_Zn	Zn	0.36045	6.34032e-33	0.86045	1.19
Mof_Zn	Zn	0.30871	0	0.80871	1.215
Mof_N 	N 	0.27228	0	0.77228	-0.202
Mof_Zn	Zn	0.36045	0.5	0.36045	1.194
Mof_Zn	Zn	0.30871	0.5	0.30871	1.218
Mof_N 	N 	0.27228	0.5	0.27228	-0.19
Mof_Zn	Zn	0.36045	0	0.13955	1.189
Mof_Zn	Zn	0.30871	1.58508e-33	0.19129	1.215
Mof_N 	N 	0.27228	-1.58508e-33	0.22772	-0.202
Mof_Zn	Zn	0.36045	0.5	0.63955	1.194
Mof_Zn	Zn	0.30871	0.5	0.69129	1.218
Mof_N 	N 	0.27228	0.5	0.72772	-0.19
Mof_C 	C 	0.91027	0.08973	0.69952	0.031
Mof_H 	H 	0.9189	0.0811	0.6791	0.039
Mof_C 	C 	0.8856	0.1144	0.7604	0.077
Mof_C 	C 	0.8671	0.1329	0.789	-0.071
Mof_H 	H 	0.85115	0.14885	0.7794	0.03
Mof_C 	C 	0.8795	0.1205	0.7992	-0.252
Mof_C 	C 	0.91027	0.58973	0.19952	0.031
Mof_H 	H 	0.9189	0.5811	0.1791	0.04
Mof_C 	C 	0.8856	0.6144	0.2604	0.077
Mof_C 	C 	0.8671	0.6329	0.289	-0.072
Mof_H 	H 	0.85115	0.64885	0.2794	0.03
Mof_C 	C 	0.8795	0.6205	0.2992	-0.252
Mof_C 	C 	0.41027	0.08973	0.19952	0.032
Mof_H 	H 	0.4189	0.0811	0.1791	0.037
Mof_C 	C 	0.3856	0.1144	0.2604	0.075
Mof_C 	C 	0.3671	0.1329	0.289	-0.07
Mof_H 	H 	0.35115	0.14885	0.2794	0.03
Mof_C 	C 	0.3795	0.1205	0.2992	-0.252
Mof_C 	C 	0.41027	0.58973	0.69952	0.032
Mof_H 	H 	0.4189	0.5811	0.6791	0.038
Mof_C 	C 	0.3856	0.6144	0.7604	0.076
Mof_C 	C 	0.3671	0.6329	0.789	-0.071
Mof_H 	H 	0.35115	0.64885	0.7794	0.03
Mof_C 	C 	0.3795	0.6205	0.7992	-0.252
Mof_C 	C 	0.08973	0.91027	0.69952	0.031
Mof_H 	H 	0.0811	0.9189	0.6791	0.039
Mof_C 	C 	0.1144	0.8856	0.7604	0.077
Mof_C 	C 	0.1329	0.8671	0.789	-0.071
Mof_H 	H 	0.14885	0.85115	0.7794	0.03
Mof_C 	C 	0.1205	0.8795	0.7992	-0.252
Mof_C 	C 	0.08973	0.41027	0.19952	0.032
Mof_H 	H 	0.0811	0.4189	0.1791	0.037
Mof_C 	C 	0.1144	0.3856	0.2604	0.075
Mof_C 	C 	0.1329	0.3671	0.289	-0.07
Mof_H 	H 	0.14885	0.35115	0.2794	0.03
Mof_C 	C 	0.1205	0.3795	0.2992	-0.252
Mof_C 	C 	0.58973	0.91027	0.19952	0.031
Mof_H 	H 	0.5811	0.9189	0.1791	0.04
Mof_C 	C 	0.6144	0.8856	0.2604	0.077
Mof_C 	C 	0.6329	0.8671	0.289	-0.072
Mof_H 	H 	0.64885	0.85115	0.2794	0.03
Mof_C 	C 	0.6205	0.8795	0.2992	-0.252
Mof_C 	C 	0.58973	0.41027	0.69952	0.032
Mof_H 	H 	0.5811	0.4189	0.6791	0.038
Mof_C 	C 	0.6144	0.3856	0.7604	0.076
Mof_C 	C 	0.6329	0.3671	0.789	-0.071
Mof_H 	H 	0.64885	0.35115	0.7794	0.03
Mof_C 	C 	0.6205	0.3795	0.7992	-0.252
Mof_C 	C 	0.08973	0.08973	0.30048	0.032
Mof_H 	H 	0.0811	0.0811	0.3209	0.036
Mof_C 	C 	0.1144	0.1144	0.2396	0.074
Mof_C 	C 	0.1329	0.1329	0.211	-0.069
Mof_H 	H 	0.14885	0.14885	0.2206	0.029
Mof_C 	C 	0.1205	0.1205	0.2008	-0.252
Mof_C 	C 	0.08973	0.58973	0.80048	0.032
Mof_H 	H 	0.0811	0.5811	0.8209	0.038
Mof_C 	C 	0.1144	0.6144	0.7396	0.075
Mof_C 	C 	0.1329	0.6329	0.711	-0.07
Mof_H 	H 	0.14885	0.64885	0.7206	0.029
Mof_C 	C 	0.1205	0.6205	0.7008	-0.252
Mof_C 	C 	0.58973	0.08973	0.80048	0.032
Mof_H 	H 	0.5811	0.0811	0.8209	0.038
Mof_C 	C 	0.6144	0.1144	0.7396	0.075
Mof_C 	C 	0.6329	0.1329	0.711	-0.07
Mof_H 	H 	0.64885	0.14885	0.7206	0.029
Mof_C 	C 	0.6205	0.1205	0.7008	-0.252
Mof_C 	C 	0.58973	0.58973	0.30048	0.032
Mof_H 	H 	0.5811	0.5811	0.3209	0.038
Mof_C 	C 	0.6144	0.6144	0.2396	0.076
Mof_C 	C 	0.6329	0.6329	0.211	-0.07
Mof_H 	H 	0.64885	0.64885	0.2206	0.029
Mof_C 	C 	0.6205	0.6205	0.2008	-0.252
Mof_C 	C 	0.91027	0.91027	0.30048	0.03
Mof_H 	H 	0.9189	0.9189	0.3209	0.041
Mof_C 	C 	0.8856	0.8856	0.2396	0.079
Mof_C 	C 	0.8671	0.8671	0.211	-0.073
Mof_H 	H 	0.85115	0.85115	0.2206	0.03
Mof_C 	C 	0.8795	0.8795	0.2008	-0.252
Mof_C 	C 	0.91027	0.41027	0.80048	0.03
Mof_H 	H 	0.9189	0.4189	0.8209	0.04
Mof_C 	C 	0.8856	0.3856	0.7396	0.077
Mof_C 	C 	0.8671	0.3671	0.711	-0.072
Mof_H 	H 	0.85115	0.35115	0.7206	0.03
Mof_C 	C 	0.8795	0.3795	0.7008	-0.252
Mof_C 	C 	0.41027	0.91027	0.80048	0.03
Mof_H 	H 	0.4189	0.9189	0.8209	0.04
Mof_C 	C 	0.3856	0.8856	0.7396	0.077
Mof_C 	C 	0.3671	0.8671	0.711	-0.072
Mof_H 	H 	0.35115	0.85115	0.7206	0.03
Mof_C 	C 	0.3795	0.8795	0.7008	-0.252
Mof_C 	C 	0.41027	0.41027	0.30048	0.032
Mof_H 	H 	0.4189	0.4189	0.3209	0.038
Mof_C 	C 	0.3856	0.3856	0.2396	0.076
Mof_C 	C 	0.3671	0.3671	0.211	-0.07
Mof_H 	H 	0.35115	0.35115	0.2206	0.03
Mof_C 	C 	0.3795	0.3795	0.2008	-0.252
Mof_C 	C 	0.69952	0.91027	0.08973	0.031
Mof_H 	H 	0.6791	0.9189	0.0811	0.039
Mof_C 	C 	0.7604	0.8856	0.1144	0.077
Mof_C 	C 	0.789	0.8671	0.1329	-0.071
Mof_H 	H 	0.7794	0.85115	0.14885	0.03
Mof_C 	C 	0.7992	0.8795	0.1205	-0.252
Mof_C 	C 	0.69952	0.41027	0.58973	0.032
Mof_H 	H 	0.6791	0.4189	0.5811	0.038
Mof_C 	C 	0.7604	0.3856	0.6144	0.076
Mof_C 	C 	0.789	0.3671	0.6329	-0.071
Mof_H 	H 	0.7794	0.35115	0.64885	0.03
Mof_C 	C 	0.7992	0.3795	0.6205	-0.252
Mof_C 	C 	0.19952	0.91027	0.58973	0.031
Mof_H 	H 	0.1791	0.9189	0.5811	0.04
Mof_C 	C 	0.2604	0.8856	0.6144	0.077
Mof_C 	C 	0.289	0.8671	0.6329	-0.072
Mof_H 	H 	0.2794	0.85115	0.64885	0.03
Mof_C 	C 	0.2992	0.8795	0.6205	-0.252
Mof_C 	C 	0.19952	0.41027	0.08973	0.032
Mof_H 	H 	0.1791	0.4189	0.0811	0.037
Mof_C 	C 	0.2604	0.3856	0.1144	0.075
Mof_C 	C 	0.289	0.3671	0.1329	-0.07
Mof_H 	H 	0.2794	0.35115	0.14885	0.03
Mof_C 	C 	0.2992	0.3795	0.1205	-0.252
Mof_C 	C 	0.69952	0.08973	0.91027	0.031
Mof_H 	H 	0.6791	0.0811	0.9189	0.039
Mof_C 	C 	0.7604	0.1144	0.8856	0.077
Mof_C 	C 	0.789	0.1329	0.8671	-0.071
Mof_H 	H 	0.7794	0.14885	0.85115	0.03
Mof_C 	C 	0.7992	0.1205	0.8795	-0.252
Mof_C 	C 	0.69952	0.58973	0.41027	0.032
Mof_H 	H 	0.6791	0.5811	0.4189	0.038
Mof_C 	C 	0.7604	0.6144	0.3856	0.076
Mof_C 	C 	0.789	0.6329	0.3671	-0.071
Mof_H 	H 	0.7794	0.64885	0.35115	0.03
Mof_C 	C 	0.7992	0.6205	0.3795	-0.252
Mof_C 	C 	0.19952	0.08973	0.41027	0.032
Mof_H 	H 	0.1791	0.0811	0.4189	0.037
Mof_C 	C 	0.2604	0.1144	0.3856	0.075
Mof_C 	C 	0.289	0.1329	0.3671	-0.07
Mof_H 	H 	0.2794	0.14885	0.35115	0.03
Mof_C 	C 	0.2992	0.1205	0.3795	-0.252
Mof_C 	C 	0.19952	0.58973	0.91027	0.031
Mof_H 	H 	0.1791	0.5811	0.9189	0.04
Mof_C 	C 	0.2604	0.6144	0.8856	0.077
Mof_C 	C 	0.289	0.6329	0.8671	-0.072
Mof_H 	H 	0.2794	0.64885	0.85115	0.03
Mof_C 	C 	0.2992	0.6205	0.8795	-0.252
Mof_C 	C 	0.30048	0.08973	0.08973	0.032
Mof_H 	H 	0.3209	0.0811	0.0811	0.036
Mof_C 	C 	0.2396	0.1144	0.1144	0.074
Mof_C 	C 	0.211	0.1329	0.1329	-0.069
Mof_H 	H 	0.2206	0.14885	0.14885	0.029
Mof_C 	C 	0.2008	0.1205	0.1205	-0.252
Mof_C 	C 	0.30048	0.58973	0.58973	0.032
Mof_H 	H 	0.3209	0.5811	0.5811	0.038
Mof_C 	C 	0.2396	0.6144	0.6144	0.076
Mof_C 	C 	0.211	0.6329	0.6329	-0.07
Mof_H 	H 	0.2206	0.64885	0.64885	0.029
Mof_C 	C 	0.2008	0.6205	0.6205	-0.252
Mof_C 	C 	0.80048	0.08973	0.58973	0.032
Mof_H 	H 	0.8209	0.0811	0.5811	0.038
Mof_C 	C 	0.7396	0.1144	0.6144	0.075
Mof_C 	C 	0.711	0.1329	0.6329	-0.07
Mof_H 	H 	0.7206	0.14885	0.64885	0.029
Mof_C 	C 	0.7008	0.1205	0.6205	-0.252
Mof_C 	C 	0.80048	0.58973	0.08973	0.032
Mof_H 	H 	0.8209	0.5811	0.0811	0.038
Mof_C 	C 	0.7396	0.6144	0.1144	0.075
Mof_C 	C 	0.711	0.6329	0.1329	-0.07
Mof_H 	H 	0.7206	0.64885	0.14885	0.029
Mof_C 	C 	0.7008	0.6205	0.1205	-0.252
Mof_C 	C 	0.30048	0.91027	0.91027	0.03
Mof_H 	H 	0.3209	0.9189	0.9189	0.041
Mof_C 	C 	0.2396	0.8856	0.8856	0.079
Mof_C 	C 	0.211	0.8671	0.8671	-0.073
Mof_H 	H 	0.2206	0.85115	0.85115	0.03
Mof_C 	C 	0.2008	0.8795	0.8795	-0.252
Mof_C 	C 	0.30048	0.41027	0.41027	0.032
Mof_H 	H 	0.3209	0.4189	0.4189	0.038
Mof_C 	C 	0.2396	0.3856	0.3856	0.076
Mof_C 	C 	0.211	0.3671	0.3671	-0.07
Mof_H 	H 	0.2206	0.35115	0.35115	0.03
Mof_C 	C 	0.2008	0.3795	0.3795	-0.252
Mof_C 	C 	0.80048	0.91027	0.41027	0.03
Mof_H 	H 	0.8209	0.9189	0.4189	0.04
Mof_C 	C 	0.7396	0.8856	0.3856	0.077
Mof_C 	C 	0.711	0.8671	0.3671	-0.072
Mof_H 	H 	0.7206	0.85115	0.35115	0.03
Mof_C 	C 	0.7008	0.8795	0.3795	-0.252
Mof_C 	C 	0.80048	0.41027	0.91027	0.03
Mof_H 	H 	0.8209	0.4189	0.9189	0.04
Mof_C 	C 	0.7396	0.3856	0.8856	0.077
Mof_C 	C 	0.711	0.3671	0.8671	-0.072
Mof_H 	H 	0.7206	0.35115	0.85115	0.03
Mof_C 	C 	0.7008	0.3795	0.8795	-0.252
Mof_C 	C 	0.08973	0.69952	0.91027	0.031
Mof_H 	H 	0.0811	0.6791	0.9189	0.039
Mof_C 	C 	0.1144	0.7604	0.8856	0.077
Mof_C 	C 	0.1329	0.789	0.8671	-0.071
Mof_H 	H 	0.14885	0.7794	0.85115	0.03
Mof_C 	C 	0.1205	0.7992	0.8795	-0.252
Mof_C 	C 	0.08973	0.19952	0.41027	0.032
Mof_H 	H 	0.0811	0.1791	0.4189	0.037
Mof_C 	C 	0.1144	0.2604	0.3856	0.075
Mof_C 	C 	0.1329	0.289	0.3671	-0.07
Mof_H 	H 	0.14885	0.2794	0.35115	0.03
Mof_C 	C 	0.1205	0.2992	0.3795	-0.252
Mof_C 	C 	0.58973	0.69952	0.41027	0.032
Mof_H 	H 	0.5811	0.6791	0.4189	0.038
Mof_C 	C 	0.6144	0.7604	0.3856	0.076
Mof_C 	C 	0.6329	0.789	0.3671	-0.071
Mof_H 	H 	0.64885	0.7794	0.35115	0.03
Mof_C 	C 	0.6205	0.7992	0.3795	-0.252
Mof_C 	C 	0.58973	0.19952	0.91027	0.031
Mof_H 	H 	0.5811	0.1791	0.9189	0.04
Mof_C 	C 	0.6144	0.2604	0.8856	0.077
Mof_C 	C 	0.6329	0.289	0.8671	-0.072
Mof_H 	H 	0.64885	0.2794	0.85115	0.03
Mof_C 	C 	0.6205	0.2992	0.8795	-0.252
Mof_C 	C 	0.91027	0.69952	0.08973	0.031
Mof_H 	H 	0.9189	0.6791	0.0811	0.039
Mof_C 	C 	0.8856	0.7604	0.1144	0.077
Mof_C 	C 	0.8671	0.789	0.1329	-0.071
Mof_H 	H 	0.85115	0.7794	0.14885	0.03
Mof_C 	C 	0.8795	0.7992	0.1205	-0.252
Mof_C 	C 	0.91027	0.19952	0.58973	0.031
Mof_H 	H 	0.9189	0.1791	0.5811	0.04
Mof_C 	C 	0.8856	0.2604	0.6144	0.077
Mof_C 	C 	0.8671	0.289	0.6329	-0.072
Mof_H 	H 	0.85115	0.2794	0.64885	0.03
Mof_C 	C 	0.8795	0.2992	0.6205	-0.252
Mof_C 	C 	0.41027	0.69952	0.58973	0.032
Mof_H 	H 	0.4189	0.6791	0.5811	0.038
Mof_C 	C 	0.3856	0.7604	0.6144	0.076
Mof_C 	C 	0.3671	0.789	0.6329	-0.071
Mof_H 	H 	0.35115	0.7794	0.64885	0.03
Mof_C 	C 	0.3795	0.7992	0.6205	-0.252
Mof_C 	C 	0.41027	0.19952	0.08973	0.032
Mof_H 	H 	0.4189	0.1791	0.0811	0.037
Mof_C 	C 	0.3856	0.2604	0.1144	0.075
Mof_C 	C 	0.3671	0.289	0.1329	-0.07
Mof_H 	H 	0.35115	0.2794	0.14885	0.03
Mof_C 	C 	0.3795	0.2992	0.1205	-0.252
Mof_C 	C 	0.08973	0.30048	0.08973	0.032
Mof_H 	H 	0.0811	0.3209	0.0811	0.036
Mof_C 	C 	0.1144	0.2396	0.1144	0.074
Mof_C 	C 	0.1329	0.211	0.1329	-0.069
Mof_H 	H 	0.14885	0.2206	0.14885	0.029
Mof_C 	C 	0.1205	0.2008	0.1205	-0.252
Mof_C 	C 	0.08973	0.80048	0.58973	0.032
Mof_H 	H 	0.0811	0.8209	0.5811	0.038
Mof_C 	C 	0.1144	0.7396	0.6144	0.075
Mof_C 	C 	0.1329	0.711	0.6329	-0.07
Mof_H 	H 	0.14885	0.7206	0.64885	0.029
Mof_C 	C 	0.1205	0.7008	0.6205	-0.252
Mof_C 	C 	0.58973	0.30048	0.58973	0.032
Mof_H 	H 	0.5811	0.3209	0.5811	0.038
Mof_C 	C 	0.6144	0.2396	0.6144	0.076
Mof_C 	C 	0.6329	0.211	0.6329	-0.07
Mof_H 	H 	0.64885	0.2206	0.64885	0.029
Mof_C 	C 	0.6205	0.2008	0.6205	-0.252
Mof_C 	C 	0.58973	0.80048	0.08973	0.032
Mof_H 	H 	0.5811	0.8209	0.0811	0.038
Mof_C 	C 	0.6144	0.7396	0.1144	0.075
Mof_C 	C 	0.6329	0.711	0.1329	-0.07
Mof_H 	H 	0.64885	0.7206	0.14885	0.029
Mof_C 	C 	0.6205	0.7008	0.1205	-0.252
Mof_C 	C 	0.91027	0.30048	0.91027	0.03
Mof_H 	H 	0.9189	0.3209	0.9189	0.041
Mof_C 	C 	0.8856	0.2396	0.8856	0.079
Mof_C 	C 	0.8671	0.211	0.8671	-0.073
Mof_H 	H 	0.85115	0.2206	0.85115	0.03
Mof_C 	C 	0.8795	0.2008	0.8795	-0.252
Mof_C 	C 	0.91027	0.80048	0.41027	0.03
Mof_H 	H 	0.9189	0.8209	0.4189	0.04
Mof_C 	C 	0.8856	0.7396	0.3856	0.077
Mof_C 	C 	0.8671	0.711	0.3671	-0.072
Mof_H 	H 	0.85115	0.7206	0.35115	0.03
Mof_C 	C 	0.8795	0.7008	0.3795	-0.252
Mof_C 	C 	0.41027	0.30048	0.41027	0.032
Mof_H 	H 	0.4189	0.3209	0.4189	0.038
Mof_C 	C 	0.3856	0.2396	0.3856	0.076
Mof_C 	C 	0.3671	0.211	0.3671	-0.07
Mof_H 	H 	0.35115	0.2206	0.35115	0.03
Mof_C 	C 	0.3795	0.2008	0.3795	-0.252
Mof_C 	C 	0.41027	0.80048	0.91027	0.03
Mof_H 	H 	0.4189	0.8209	0.9189	0.04
Mof_C 	C 	0.3856	0.7396	0.8856	0.077
Mof_C 	C 	0.3671	0.711	0.8671	-0.072
Mof_H 	H 	0.35115	0.7206	0.85115	0.03
Mof_C 	C 	0.3795	0.7008	0.8795	-0.252
Mof_C 	C 	0.08973	0.91027	0.30048	0.031
Mof_H 	H 	0.0811	0.9189	0.3209	0.039
Mof_C 	C 	0.1144	0.8856	0.2396	0.076
Mof_C 	C 	0.1329	0.8671	0.211	-0.071
Mof_H 	H 	0.14885	0.85115	0.2206	0.03
Mof_C 	C 	0.1205	0.8795	0.2008	-0.252
Mof_C 	C 	0.08973	0.41027	0.80048	0.032
Mof_H 	H 	0.0811	0.4189	0.8209	0.038
Mof_C 	C 	0.1144	0.3856	0.7396	0.075
Mof_C 	C 	0.1329	0.3671	0.711	-0.07
Mof_H 	H 	0.14885	0.35115	0.7206	0.029
Mof_C 	C 	0.1205	0.3795	0.7008	-0.252
Mof_C 	C 	0.58973	0.91027	0.80048	0.03
Mof_H 	H 	0.5811	0.9189	0.8209	0.04
Mof_C 	C 	0.6144	0.8856	0.7396	0.077
Mof_C 	C 	0.6329	0.8671	0.711	-0.072
Mof_H 	H 	0.64885	0.85115	0.7206	0.03
Mof_C 	C 	0.6205	0.8795	0.7008	-0.252
Mof_C 	C 	0.58973	0.41027	0.30048	0.032
Mof_H 	H 	0.5811	0.4189	0.3209	0.038
Mof_C 	C 	0.6144	0.3856	0.2396	0.076
Mof_C 	C 	0.6329	0.3671	0.211	-0.07
Mof_H 	H 	0.64885	0.35115	0.2206	0.029
Mof_C 	C 	0.6205	0.3795	0.2008	-0.252
Mof_C 	C 	0.91027	0.08973	0.30048	0.031
Mof_H 	H 	0.9189	0.0811	0.3209	0.039
Mof_C 	C 	0.8856	0.1144	0.2396	0.076
Mof_C 	C 	0.8671	0.1329	0.211	-0.071
Mof_H 	H 	0.85115	0.14885	0.2206	0.03
Mof_C 	C 	0.8795	0.1205	0.2008	-0.252
Mof_C 	C 	0.91027	0.58973	0.80048	0.03
Mof_H 	H 	0.9189	0.5811	0.8209	0.04
Mof_C 	C 	0.8856	0.6144	0.7396	0.077
Mof_C 	C 	0.8671	0.6329	0.711	-0.072
Mof_H 	H 	0.85115	0.64885	0.7206	0.03
Mof_C 	C 	0.8795	0.6205	0.7008	-0.252
Mof_C 	C 	0.41027	0.08973	0.80048	0.032
Mof_H 	H 	0.4189	0.0811	0.8209	0.038
Mof_C 	C 	0.3856	0.1144	0.7396	0.075
Mof_C 	C 	0.3671	0.1329	0.711	-0.07
Mof_H 	H 	0.35115	0.14885	0.7206	0.029
Mof_C 	C 	0.3795	0.1205	0.7008	-0.252
Mof_C 	C 	0.41027	0.58973	0.30048	0.032
Mof_H 	H 	0.4189	0.5811	0.3209	0.038
Mof_C 	C 	0.3856	0.6144	0.2396	0.076
Mof_C 	C 	0.3671	0.6329	0.211	-0.07
Mof_H 	H 	0.35115	0.64885	0.2206	0.029
Mof_C 	C 	0.3795	0.6205	0.2008	-0.252
Mof_C 	C 	0.08973	0.08973	0.69952	0.032
Mof_H 	H 	0.0811	0.0811	0.6791	0.036
Mof_C 	C 	0.1144	0.1144	0.7604	0.074
Mof_C 	C 	0.1329	0.1329	0.789	-0.069
Mof_H 	H 	0.14885	0.14885	0.7794	0.029
Mof_C 	C 	0.1205	0.1205	0.7992	-0.252
Mof_C 	C 	0.08973	0.58973	0.19952	0.032
Mof_H 	H 	0.0811	0.5811	0.1791	0.037
Mof_C 	C 	0.1144	0.6144	0.2604	0.075
Mof_C 	C 	0.1329	0.6329	0.289	-0.07
Mof_H 	H 	0.14885	0.64885	0.2794	0.029
Mof_C 	C 	0.1205	0.6205	0.2992	-0.252
Mof_C 	C 	0.58973	0.08973	0.19952	0.032
Mof_H 	H 	0.5811	0.0811	0.1791	0.037
Mof_C 	C 	0.6144	0.1144	0.2604	0.075
Mof_C 	C 	0.6329	0.1329	0.289	-0.07
Mof_H 	H 	0.64885	0.14885	0.2794	0.029
Mof_C 	C 	0.6205	0.1205	0.2992	-0.252
Mof_C 	C 	0.58973	0.58973	0.69952	0.032
Mof_H 	H 	0.5811	0.5811	0.6791	0.038
Mof_C 	C 	0.6144	0.6144	0.7604	0.076
Mof_C 	C 	0.6329	0.6329	0.789	-0.071
Mof_H 	H 	0.64885	0.64885	0.7794	0.03
Mof_C 	C 	0.6205	0.6205	0.7992	-0.252
Mof_C 	C 	0.91027	0.91027	0.69952	0.03
Mof_H 	H 	0.9189	0.9189	0.6791	0.041
Mof_C 	C 	0.8856	0.8856	0.7604	0.079
Mof_C 	C 	0.8671	0.8671	0.789	-0.073
Mof_H 	H 	0.85115	0.85115	0.7794	0.03
Mof_C 	C 	0.8795	0.8795	0.7992	-0.252
Mof_C 	C 	0.91027	0.41027	0.19952	0.031
Mof_H 	H 	0.9189	0.4189	0.1791	0.04
Mof_C 	C 	0.8856	0.3856	0.2604	0.077
Mof_C 	C 	0.8671	0.3671	0.289	-0.072
Mof_H 	H 	0.85115	0.35115	0.2794	0.03
Mof_C 	C 	0.8795	0.3795	0.2992	-0.252
Mof_C 	C 	0.41027	0.91027	0.19952	0.031
Mof_H 	H 	0.4189	0.9189	0.1791	0.04
Mof_C 	C 	0.3856	0.8856	0.2604	0.077
Mof_C 	C 	0.3671	0.8671	0.289	-0.072
Mof_H 	H 	0.35115	0.85115	0.2794	0.03
Mof_C 	C 	0.3795	0.8795	0.2992	-0.252
Mof_C 	C 	0.41027	0.41027	0.69952	0.032
Mof_H 	H 	0.4189	0.4189	0.6791	0.039
Mof_C 	C 	0.3856	0.3856	0.7604	0.076
Mof_C 	C 	0.3671	0.3671	0.789	-0.071
Mof_H 	H 	0.35115	0.35115	0.7794	0.03
Mof_C 	C 	0.3795	0.3795	0.7992	-0.252
Mof_C 	C 	0.91027	0.69952	0.91027	0.03
Mof_H 	H 	0.9189	0.6791	0.9189	0.041
Mof_C 	C 	0.8856	0.7604	0.8856	0.079
Mof_C 	C 	0.8671	0.789	0.8671	-0.073
Mof_H 	H 	0.85115	0.7794	0.85115	0.03
Mof_C 	C 	0.8795	0.7992	0.8795	-0.252
Mof_C 	C 	0.91027	0.19952	0.41027	0.031
Mof_H 	H 	0.9189	0.1791	0.4189	0.04
Mof_C 	C 	0.8856	0.2604	0.3856	0.077
Mof_C 	C 	0.8671	0.289	0.3671	-0.072
Mof_H 	H 	0.85115	0.2794	0.35115	0.03
Mof_C 	C 	0.8795	0.2992	0.3795	-0.252
Mof_C 	C 	0.41027	0.69952	0.41027	0.032
Mof_H 	H 	0.4189	0.6791	0.4189	0.039
Mof_C 	C 	0.3856	0.7604	0.3856	0.076
Mof_C 	C 	0.3671	0.789	0.3671	-0.071
Mof_H 	H 	0.35115	0.7794	0.35115	0.03
Mof_C 	C 	0.3795	0.7992	0.3795	-0.252
Mof_C 	C 	0.41027	0.19952	0.91027	0.031
Mof_H 	H 	0.4189	0.1791	0.9189	0.04
Mof_C 	C 	0.3856	0.2604	0.8856	0.077
Mof_C 	C 	0.3671	0.289	0.8671	-0.072
Mof_H 	H 	0.35115	0.2794	0.85115	0.03
Mof_C 	C 	0.3795	0.2992	0.8795	-0.252
Mof_C 	C 	0.08973	0.69952	0.08973	0.032
Mof_H 	H 	0.0811	0.6791	0.0811	0.036
Mof_C 	C 	0.1144	0.7604	0.1144	0.074
Mof_C 	C 	0.1329	0.789	0.1329	-0.069
Mof_H 	H 	0.14885	0.7794	0.14885	0.029
Mof_C 	C 	0.1205	0.7992	0.1205	-0.252
Mof_C 	C 	0.08973	0.19952	0.58973	0.032
Mof_H 	H 	0.0811	0.1791	0.5811	0.037
Mof_C 	C 	0.1144	0.2604	0.6144	0.075
Mof_C 	C 	0.1329	0.289	0.6329	-0.07
Mof_H 	H 	0.14885	0.2794	0.64885	0.029
Mof_C 	C 	0.1205	0.2992	0.6205	-0.252
Mof_C 	C 	0.58973	0.69952	0.58973	0.032
Mof_H 	H 	0.5811	0.6791	0.5811	0.038
Mof_C 	C 	0.6144	0.7604	0.6144	0.076
Mof_C 	C 	0.6329	0.789	0.6329	-0.071
Mof_H 	H 	0.64885	0.7794	0.64885	0.03
Mof_C 	C 	0.6205	0.7992	0.6205	-0.252
Mof_C 	C 	0.58973	0.19952	0.08973	0.032
Mof_H 	H 	0.5811	0.1791	0.0811	0.037
Mof_C 	C 	0.6144	0.2604	0.1144	0.075
Mof_C 	C 	0.6329	0.289	0.1329	-0.07
Mof_H 	H 	0.64885	0.2794	0.14885	0.029
Mof_C 	C 	0.6205	0.2992	0.1205	-0.252
Mof_C 	C 	0.08973	0.30048	0.91027	0.031
Mof_H 	H 	0.0811	0.3209	0.9189	0.039
Mof_C 	C 	0.1144	0.2396	0.8856	0.076
Mof_C 	C 	0.1329	0.211	0.8671	-0.071
Mof_H 	H 	0.14885	0.2206	0.85115	0.03
Mof_C 	C 	0.1205	0.2008	0.8795	-0.252
Mof_C 	C 	0.08973	0.80048	0.41027	0.032
Mof_H 	H 	0.0811	0.8209	0.4189	0.038
Mof_C 	C 	0.1144	0.7396	0.3856	0.075
Mof_C 	C 	0.1329	0.711	0.3671	-0.07
Mof_H 	H 	0.14885	0.7206	0.35115	0.029
Mof_C 	C 	0.1205	0.7008	0.3795	-0.252
Mof_C 	C 	0.58973	0.30048	0.41027	0.032
Mof_H 	H 	0.5811	0.3209	0.4189	0.038
Mof_C 	C 	0.6144	0.2396	0.3856	0.076
Mof_C 	C 	0.6329	0.211	0.3671	-0.07
Mof_H 	H 	0.64885	0.2206	0.35115	0.029
Mof_C 	C 	0.6205	0.2008	0.3795	-0.252
Mof_C 	C 	0.58973	0.80048	0.91027	0.03
Mof_H 	H 	0.5811	0.8209	0.9189	0.04
Mof_C 	C 	0.6144	0.7396	0.8856	0.077
Mof_C 	C 	0.6329	0.711	0.8671	-0.072
Mof_H 	H 	0.64885	0.7206	0.85115	0.03
Mof_C 	C 	0.6205	0.7008	0.8795	-0.252
Mof_C 	C 	0.91027	0.30048	0.08973	0.031
Mof_H 	H 	0.9189	0.3209	0.0811	0.039
Mof_C 	C 	0.8856	0.2396	0.1144	0.076
Mof_C 	C 	0.8671	0.211	0.1329	-0.071
Mof_H 	H 	0.85115	0.2206	0.14885	0.03
Mof_C 	C 	0.8795	0.2008	0.1205	-0.252
Mof_C 	C 	0.91027	0.80048	0.58973	0.03
Mof_H 	H 	0.9189	0.8209	0.5811	0.04
Mof_C 	C 	0.8856	0.7396	0.6144	0.077
Mof_C 	C 	0.8671	0.711	0.6329	-0.072
Mof_H 	H 	0.85115	0.7206	0.64885	0.03
Mof_C 	C 	0.8795	0.7008	0.6205	-0.252
Mof_C 	C 	0.41027	0.30048	0.58973	0.032
Mof_H 	H 	0.4189	0.3209	0.5811	0.038
Mof_C 	C 	0.3856	0.2396	0.6144	0.076
Mof_C 	C 	0.3671	0.211	0.6329	-0.07
Mof_H 	H 	0.35115	0.2206	0.64885	0.029
Mof_C 	C 	0.3795	0.2008	0.6205	-0.252
Mof_C 	C 	0.41027	0.80048	0.08973	0.032
Mof_H 	H 	0.4189	0.8209	0.0811	0.038
Mof_C 	C 	0.3856	0.7396	0.1144	0.075
Mof_C 	C 	0.3671	0.711	0.1329	-0.07
Mof_H 	H 	0.35115	0.7206	0.14885	0.029
Mof_C 	C 	0.3795	0.7008	0.1205	-0.252
Mof_C 	C 	0.69952	0.08973	0.08973	0.032
Mof_H 	H 	0.6791	0.0811	0.0811	0.036
Mof_C 	C 	0.7604	0.1144	0.1144	0.074
Mof_C 	C 	0.789	0.1329	0.1329	-0.069
Mof_H 	H 	0.7794	0.14885	0.14885	0.029
Mof_C 	C 	0.7992	0.1205	0.1205	-0.252
Mof_C 	C 	0.69952	0.58973	0.58973	0.032
Mof_H 	H 	0.6791	0.5811	0.5811	0.038
Mof_C 	C 	0.7604	0.6144	0.6144	0.076
Mof_C 	C 	0.789	0.6329	0.6329	-0.071
Mof_H 	H 	0.7794	0.64885	0.64885	0.03
Mof_C 	C 	0.7992	0.6205	0.6205	-0.252
Mof_C 	C 	0.19952	0.08973	0.58973	0.032
Mof_H 	H 	0.1791	0.0811	0.5811	0.037
Mof_C 	C 	0.2604	0.1144	0.6144	0.075
Mof_C 	C 	0.289	0.1329	0.6329	-0.07
Mof_H 	H 	0.2794	0.14885	0.64885	0.029
Mof_C 	C 	0.2992	0.1205	0.6205	-0.252
Mof_C 	C 	0.19952	0.58973	0.08973	0.032
Mof_H 	H 	0.1791	0.5811	0.0811	0.037
Mof_C 	C 	0.2604	0.6144	0.1144	0.075
Mof_C 	C 	0.289	0.6329	0.1329	-0.07
Mof_H 	H 	0.2794	0.64885	0.14885	0.029
Mof_C 	C 	0.2992	0.6205	0.1205	-0.252
Mof_C 	C 	0.69952	0.91027	0.91027	0.03
Mof_H 	H 	0.6791	0.9189	0.9189	0.041
Mof_C 	C 	0.7604	0.8856	0.8856	0.079
Mof_C 	C 	0.789	0.8671	0.8671	-0.073
Mof_H 	H 	0.7794	0.85115	0.85115	0.03
Mof_C 	C 	0.7992	0.8795	0.8795	-0.252
Mof_C 	C 	0.69952	0.41027	0.41027	0.032
Mof_H 	H 	0.6791	0.4189	0.4189	0.039
Mof_C 	C 	0.7604	0.3856	0.3856	0.076
Mof_C 	C 	0.789	0.3671	0.3671	-0.071
Mof_H 	H 	0.7794	0.35115	0.35115	0.03
Mof_C 	C 	0.7992	0.3795	0.3795	-0.252
Mof_C 	C 	0.19952	0.91027	0.41027	0.031
Mof_H 	H 	0.1791	0.9189	0.4189	0.04
Mof_C 	C 	0.2604	0.8856	0.3856	0.077
Mof_C 	C 	0.289	0.8671	0.3671	-0.072
Mof_H 	H 	0.2794	0.85115	0.35115	0.03
Mof_C 	C 	0.2992	0.8795	0.3795	-0.252
Mof_C 	C 	0.19952	0.41027	0.91027	0.031
Mof_H 	H 	0.1791	0.4189	0.9189	0.04
Mof_C 	C 	0.2604	0.3856	0.8856	0.077
Mof_C 	C 	0.289	0.3671	0.8671	-0.072
Mof_H 	H 	0.2794	0.35115	0.85115	0.03
Mof_C 	C 	0.2992	0.3795	0.8795	-0.252
Mof_C 	C 	0.30048	0.08973	0.91027	0.031
Mof_H 	H 	0.3209	0.0811	0.9189	0.039
Mof_C 	C 	0.2396	0.1144	0.8856	0.076
Mof_C 	C 	0.211	0.1329	0.8671	-0.071
Mof_H 	H 	0.2206	0.14885	0.85115	0.03
Mof_C 	C 	0.2008	0.1205	0.8795	-0.252
Mof_C 	C 	0.30048	0.58973	0.41027	0.032
Mof_H 	H 	0.3209	0.5811	0.4189	0.038
Mof_C 	C 	0.2396	0.6144	0.3856	0.076
Mof_C 	C 	0.211	0.6329	0.3671	-0.07
Mof_H 	H 	0.2206	0.64885	0.35115	0.029
Mof_C 	C 	0.2008	0.6205	0.3795	-0.252
Mof_C 	C 	0.80048	0.08973	0.41027	0.032
Mof_H 	H 	0.8209	0.0811	0.4189	0.038
Mof_C 	C 	0.7396	0.1144	0.3856	0.075
Mof_C 	C 	0.711	0.1329	0.3671	-0.07
Mof_H 	H 	0.7206	0.14885	0.35115	0.029
Mof_C 	C 	0.7008	0.1205	0.3795	-0.252
Mof_C 	C 	0.80048	0.58973	0.91027	0.03
Mof_H 	H 	0.8209	0.5811	0.9189	0.04
Mof_C 	C 	0.7396	0.6144	0.8856	0.077
Mof_C 	C 	0.711	0.6329	0.8671	-0.072
Mof_H 	H 	0.7206	0.64885	0.85115	0.03
Mof_C 	C 	0.7008	0.6205	0.8795	-0.252
Mof_C 	C 	0.30048	0.91027	0.08973	0.031
Mof_H 	H 	0.3209	0.9189	0.0811	0.039
Mof_C 	C 	0.2396	0.8856	0.1144	0.076
Mof_C 	C 	0.211	0.8671	0.1329	-0.071
Mof_H 	H 	0.2206	0.85115	0.14885	0.03
Mof_C 	C 	0.2008	0.8795	0.1205	-0.252
Mof_C 	C 	0.30048	0.41027	0.58973	0.032
Mof_H 	H 	0.3209	0.4189	0.5811	0.038
Mof_C 	C 	0.2396	0.3856	0.6144	0.076
Mof_C 	C 	0.211	0.3671	0.6329	-0.07
Mof_H 	H 	0.2206	0.35115	0.64885	0.029
Mof_C 	C 	0.2008	0.3795	0.6205	-0.252
Mof_C 	C 	0.80048	0.91027	0.58973	0.03
Mof_H 	H 	0.8209	0.9189	0.5811	0.04
Mof_C 	C 	0.7396	0.8856	0.6144	0.077
Mof_C 	C 	0.711	0.8671	0.6329	-0.072
Mof_H 	H 	0.7206	0.85115	0.64885	0.03
Mof_C 	C 	0.7008	0.8795	0.6205	-0.252
Mof_C 	C 	0.80048	0.41027	0.08973	0.032
Mof_H 	H 	0.8209	0.4189	0.0811	0.038
Mof_C 	C 	0.7396	0.3856	0.1144	0.075
Mof_C 	C 	0.711	0.3671	0.1329	-0.07
Mof_H 	H 	0.7206	0.35115	0.14885	0.029
Mof_C 	C 	0.7008	0.3795	0.1205	-0.252
Mof_H 	H 	0.7343	0	0.6954	0.018
Mof_H 	H 	0.7343	0.5	0.1954	0.03
Mof_H 	H 	0.2343	0	0.1954	0.017
Mof_H 	H 	0.2343	0.5	0.6954	0.03
Mof_H 	H 	0.2657	0	0.6954	0.018
Mof_H 	H 	0.2657	0.5	0.1954	0.03
Mof_H 	H 	0.7657	0	0.1954	0.018
Mof_H 	H 	0.7657	0.5	0.6954	0.031
Mof_H 	H 	0.2657	0	0.3046	0.018
Mof_H 	H 	0.2657	0.5	0.8046	0.031
Mof_H 	H 	0.7657	6.34032e-33	0.8046	0.018
Mof_H 	H 	0.7657	0.5	0.3046	0.031
Mof_H 	H 	0.7343	0	0.3046	0.018
Mof_H 	H 	0.7343	0.5	0.8046	0.031
Mof_H 	H 	0.2343	6.34032e-33	0.8046	0.018
Mof_H 	H 	0.2343	0.5	0.3046	0.03
Mof_H 	H 	0.6954	0.7343	-0	0.018
Mof_H 	H 	0.6954	0.2343	0.5	0.03
Mof_H 	H 	0.1954	0.7343	0.5	0.03
Mof_H 	H 	0.1954	0.2343	-0	0.017
Mof_H 	H 	0.6954	0.2657	-0	0.018
Mof_H 	H 	0.6954	0.7657	0.5	0.031
Mof_H 	H 	0.1954	0.2657	0.5	0.03
Mof_H 	H 	0.1954	0.7657	-0	0.018
Mof_H 	H 	0.3046	0.2657	-0	0.018
Mof_H 	H 	0.3046	0.7657	0.5	0.031
Mof_H 	H 	0.8046	0.2657	0.5	0.031
Mof_H 	H 	0.8046	0.7657	-0	0.018
Mof_H 	H 	0.3046	0.7343	-0	0.018
Mof_H 	H 	0.3046	0.2343	0.5	0.03
Mof_H 	H 	0.8046	0.7343	0.5	0.031
Mof_H 	H 	0.8046	0.2343	-0	0.018
Mof_H 	H 	2.75318e-33	0.6954	0.7343	0.018
Mof_H 	H 	-2.29168e-33	0.1954	0.2343	0.017
Mof_H 	H 	0.5	0.6954	0.2343	0.03
Mof_H 	H 	0.5	0.1954	0.7343	0.03
Mof_H 	H 	1.36769e-32	0.6954	0.2657	0.018
Mof_H 	H 	9.21124e-33	0.1954	0.7657	0.018
Mof_H 	H 	0.5	0.6954	0.7657	0.031
Mof_H 	H 	0.5	0.1954	0.2657	0.03
Mof_H 	H 	1.05067e-32	0.3046	0.2657	0.018
Mof_H 	H 	2.87092e-33	0.8046	0.7657	0.018
Mof_H 	H 	0.5	0.3046	0.7657	0.031
Mof_H 	H 	0.5	0.8046	0.2657	0.031
Mof_H 	H 	2.75318e-33	0.3046	0.7343	0.018
Mof_H 	H 	4.04865e-33	0.8046	0.2343	0.018
Mof_H 	H 	0.5	0.3046	0.2343	0.03
Mof_H 	H 	0.5	0.8046	0.7343	0.031
Mof_H 	H 	4.31223e-33	0.7343	0.3046	0.018
Mof_H 	H 	3.01677e-33	0.2343	0.8046	0.018
Mof_H 	H 	0.5	0.7343	0.8046	0.031
Mof_H 	H 	0.5	0.2343	0.3046	0.03
Mof_H 	H 	1.06526e-32	0.2657	0.3046	0.018
Mof_H 	H 	-3.32356e-33	0.7657	0.8046	0.018
Mof_H 	H 	0.5	0.2657	0.8046	0.031
Mof_H 	H 	0.5	0.7657	0.3046	0.031
Mof_H 	H 	8.94766e-33	0.2657	0.6954	0.018
Mof_H 	H 	8.65804e-33	0.7657	0.1954	0.018
Mof_H 	H 	0.5	0.2657	0.1954	0.03
Mof_H 	H 	0.5	0.7657	0.6954	0.031
Mof_H 	H 	8.94766e-33	0.7343	0.6954	0.018
Mof_H 	H 	-8.52448e-34	0.2343	0.1954	0.017
Mof_H 	H 	0.5	0.7343	0.1954	0.03
Mof_H 	H 	0.5	0.2343	0.6954	0.03
Mof_H 	H 	0.7343	0.6954	-0	0.018
Mof_H 	H 	0.7343	0.1954	0.5	0.03
Mof_H 	H 	0.2343	0.6954	0.5	0.03
Mof_H 	H 	0.2343	0.1954	-0	0.017
Mof_H 	H 	0.2657	0.6954	-0	0.018
Mof_H 	H 	0.2657	0.1954	0.5	0.03
Mof_H 	H 	0.7657	0.6954	0.5	0.031
Mof_H 	H 	0.7657	0.1954	-0	0.018
Mof_H 	H 	0.2657	0.3046	-0	0.018
Mof_H 	H 	0.2657	0.8046	0.5	0.031
Mof_H 	H 	0.7657	0.3046	0.5	0.031
Mof_H 	H 	0.7657	0.8046	-0	0.018
Mof_H 	H 	0.7343	0.3046	-0	0.018
Mof_H 	H 	0.7343	0.8046	0.5	0.031
Mof_H 	H 	0.2343	0.3046	0.5	0.03
Mof_H 	H 	0.2343	0.8046	-0	0.018
Mof_H 	H 	0.6954	0	0.2657	0.018
Mof_H 	H 	0.6954	0.5	0.7657	0.031
Mof_H 	H 	0.1954	6.34032e-33	0.7657	0.018
Mof_H 	H 	0.1954	0.5	0.2657	0.03
Mof_H 	H 	0.6954	-6.34032e-33	0.7343	0.018
Mof_H 	H 	0.6954	0.5	0.2343	0.03
Mof_H 	H 	0.1954	0	0.2343	0.017
Mof_H 	H 	0.1954	0.5	0.7343	0.03
Mof_H 	H 	0.3046	-6.34032e-33	0.7343	0.018
Mof_H 	H 	0.3046	0.5	0.2343	0.03
Mof_H 	H 	0.8046	0	0.2343	0.018
Mof_H 	H 	0.8046	0.5	0.7343	0.031
Mof_H 	H 	0.3046	0	0.2657	0.018
Mof_H 	H 	0.3046	0.5	0.7657	0.031
Mof_H 	H 	0.8046	6.34032e-33	0.7657	0.018
Mof_H 	H 	0.8046	0.5	0.2657	0.031
_end
