data_functionalizedCrystal
_audit_creation_method	'EQeq! by Chris Wilmer'
_symmetry_space_group_name_H-M	'P1'
_symmetry_Int_Tables_number	1
_symmetry_cell_setting	triclinic
loop_
_symmetry_equiv_pos_as_xyz
  x,y,z
_cell_length_a	10.3738
_cell_length_b	14.806
_cell_length_c	13.4494
_cell_angle_alpha	90
_cell_angle_beta	90.275
_cell_angle_gamma	90
loop_
_atom_site_label
_atom_site_type_symbol
_atom_site_fract_x
_atom_site_fract_y
_atom_site_fract_z
_atom_site_charge
Mof_Al	Al	0.7655	0.1053	0.3492	7.92
Mof_Al	Al	0.7704	0.8994	0.613	7.933
Mof_Al	Al	0.4925	0.8959	0.2722	7.838
Mof_Al	Al	0.9978	0.232	0.6158	7.745
Mof_P 	P 	0.7673	0.8955	0.3802	2.083
Mof_P 	P 	0.7592	0.1079	0.5973	2.023
Mof_P 	P 	0.4858	0.1058	0.2647	2.081
Mof_P 	P 	0.9995	0.235	0.3784	2.088
Mof_F 	F 	0.7909	0.0917	0.2204	-1.816
Mof_O 	O 	0.8562	0.1748	0.6431	-2.332
Mof_O 	O 	0.8037	0.0131	0.6311	-2.513
Mof_O 	O 	0.7525	0.1168	0.4869	-2.156
Mof_O 	O 	0.5954	0.1217	0.3365	-2.312
Mof_O 	O 	0.4978	0.163	0.1713	-2.337
Mof_O 	O 	0.4787	0.0069	0.2313	-2.405
Mof_O 	O 	0.3602	0.132	0.3163	-2.462
Mof_O 	O 	0.0985	0.1638	0.3475	-2.476
Mof_O 	O 	0.0108	0.2516	0.4901	-2.405
Mof_O 	O 	0.0301	0.3245	0.3275	-2.311
Mof_O 	O 	0.8659	0.2038	0.3486	-2.226
Mof_O 	O 	0.7375	0.8767	0.4897	-2.537
Mof_O 	O 	0.8177	0.9902	0.366	-2.298
Mof_O 	O 	0.869	0.8286	0.3437	-2.317
Mof_O 	O 	0.6443	0.8787	0.3206	-2.407
Mof_O 	O 	0.6264	0.1267	0.6417	-2.409
Mof_Al	Al	0.7345	0.6053	0.1508	7.96
Mof_Al	Al	0.7296	0.3994	0.887	7.807
Mof_Al	Al	0.0075	0.3959	0.2278	7.771
Mof_Al	Al	0.5022	0.732	0.8842	7.863
Mof_P 	P 	0.7327	0.3955	0.1198	2.081
Mof_P 	P 	0.7408	0.6079	0.9027	2.005
Mof_P 	P 	0.0142	0.6058	0.2353	2.046
Mof_P 	P 	0.5005	0.735	0.1216	2.102
Mof_F 	F 	0.7091	0.5917	0.2796	-1.815
Mof_O 	O 	0.6438	0.6748	0.8569	-2.351
Mof_O 	O 	0.6963	0.5131	0.8689	-2.473
Mof_O 	O 	0.7475	0.6168	0.0131	-2.143
Mof_O 	O 	0.9046	0.6217	0.1635	-2.289
Mof_O 	O 	0.0022	0.663	0.3287	-2.309
Mof_O 	O 	0.0213	0.5069	0.2687	-2.382
Mof_O 	O 	0.1398	0.632	0.1837	-2.435
Mof_O 	O 	0.4015	0.6638	0.1525	-2.459
Mof_O 	O 	0.4892	0.7516	0.0099	-2.45
Mof_O 	O 	0.4699	0.8245	0.1725	-2.331
Mof_O 	O 	0.6341	0.7038	0.1514	-2.233
Mof_O 	O 	0.7625	0.3767	0.0103	-2.505
Mof_O 	O 	0.6823	0.4902	0.134	-2.316
Mof_O 	O 	0.631	0.3286	0.1563	-2.356
Mof_O 	O 	0.8557	0.3787	0.1794	-2.385
Mof_O 	O 	0.8736	0.6267	0.8583	-2.396
Mof_Al	Al	0.2345	0.8947	0.6508	7.921
Mof_Al	Al	0.2296	0.1006	0.387	7.934
Mof_Al	Al	0.5075	0.1041	0.7278	7.838
Mof_Al	Al	0.0022	0.768	0.3842	7.745
Mof_P 	P 	0.2327	0.1045	0.6198	2.083
Mof_P 	P 	0.2408	0.8921	0.4027	2.023
Mof_P 	P 	0.5142	0.8942	0.7353	2.081
Mof_P 	P 	0.0005	0.765	0.6216	2.088
Mof_F 	F 	0.2091	0.9083	0.7796	-1.816
Mof_O 	O 	0.1438	0.8252	0.3569	-2.332
Mof_O 	O 	0.1963	0.9869	0.3689	-2.513
Mof_O 	O 	0.2475	0.8832	0.5131	-2.156
Mof_O 	O 	0.4046	0.8783	0.6635	-2.312
Mof_O 	O 	0.5022	0.837	0.8287	-2.337
Mof_O 	O 	0.5213	0.9931	0.7687	-2.405
Mof_O 	O 	0.6398	0.868	0.6837	-2.462
Mof_O 	O 	0.9015	0.8362	0.6525	-2.476
Mof_O 	O 	0.9892	0.7484	0.5099	-2.405
Mof_O 	O 	0.9699	0.6755	0.6725	-2.311
Mof_O 	O 	0.1341	0.7962	0.6514	-2.226
Mof_O 	O 	0.2625	0.1233	0.5103	-2.537
Mof_O 	O 	0.1823	0.0098	0.634	-2.298
Mof_O 	O 	0.131	0.1714	0.6563	-2.317
Mof_O 	O 	0.3557	0.1213	0.6794	-2.407
Mof_O 	O 	0.3736	0.8733	0.3583	-2.409
Mof_Al	Al	0.2655	0.3947	0.8492	7.96
Mof_Al	Al	0.2704	0.6006	0.113	7.807
Mof_Al	Al	0.9925	0.6041	0.7722	7.771
Mof_Al	Al	0.4978	0.268	0.1158	7.863
Mof_P 	P 	0.2673	0.6045	0.8802	2.081
Mof_P 	P 	0.2592	0.3921	0.0973	2.005
Mof_P 	P 	0.9858	0.3942	0.7647	2.046
Mof_P 	P 	0.4995	0.265	0.8784	2.102
Mof_F 	F 	0.2909	0.4083	0.7204	-1.815
Mof_O 	O 	0.3562	0.3252	0.1431	-2.351
Mof_O 	O 	0.3037	0.4869	0.1311	-2.473
Mof_O 	O 	0.2525	0.3832	0.9869	-2.143
Mof_O 	O 	0.0954	0.3783	0.8365	-2.289
Mof_O 	O 	0.9978	0.337	0.6713	-2.309
Mof_O 	O 	0.9787	0.4931	0.7313	-2.382
Mof_O 	O 	0.8602	0.368	0.8163	-2.435
Mof_O 	O 	0.5985	0.3362	0.8475	-2.459
Mof_O 	O 	0.5108	0.2484	0.9901	-2.45
Mof_O 	O 	0.5301	0.1755	0.8275	-2.331
Mof_O 	O 	0.3659	0.2962	0.8486	-2.233
Mof_O 	O 	0.2375	0.6233	0.9897	-2.505
Mof_O 	O 	0.3177	0.5098	0.866	-2.316
Mof_O 	O 	0.369	0.6714	0.8437	-2.356
Mof_O 	O 	0.1443	0.6213	0.8206	-2.385
Mof_O 	O 	0.1264	0.3733	0.1417	-2.396
_end
