# CIF file generated by openbabel 2.4.1, see http://openbabel.sf.net
data_I
_chemical_name_common 'image0'
_cell_length_a 10.2829
_cell_length_b 10.2829
_cell_length_c 14.3687
_cell_angle_alpha 90
_cell_angle_beta 90
_cell_angle_gamma 90
_space_group_name_H-M_alt 'P 1'
_space_group_name_Hall 'P 1'
loop_
    _symmetry_equiv_pos_as_xyz
    x,y,z
loop_
    _atom_site_label
    _atom_site_type_symbol
    _atom_site_fract_x
    _atom_site_fract_y
    _atom_site_fract_z
    _atom_site_occupancy
    O1      O    0.92410   0.10420   0.90650   1.000
    O2      O    0.75040   0.08360   0.98978   1.000
    O3      O    0.32970   0.92890   0.69250   1.000
    C1      C    0.73530   0.03880   0.82910   1.000
    C2      C    0.60010   0.03670   0.82960   1.000
    H1      H    0.55510   0.05990   0.88330   1.000
    C3      C    0.80710   0.07970   0.91470   1.000
    H2      H    0.37430   0.30710   0.83440   1.000
    C4      C    0.33200   0.42100   0.94660   1.000
    H3      H    0.41620   0.45960   0.93890   1.000
    H4      H    0.32450   0.38550   0.00810   1.000
    H5      H    0.26610   0.48650   0.93790   1.000
    H6      H    0.36220   0.32540   0.92280   1.000
    C5      C    0.32400   0.41300   0.80000   1.000
    H7      H    0.39130   0.47420   0.81330   1.000
    H8      H    0.24200   0.45770   0.79460   1.000
    H9      H    0.34240   0.36980   0.74190   1.000
    O4      O    0.07590   0.89580   0.40650   1.000
    O5      O    0.24960   0.91640   0.48978   1.000
    O6      O    0.67030   0.07110   0.19250   1.000
    C6      C    0.26470   0.96120   0.32910   1.000
    C7      C    0.39990   0.96330   0.32960   1.000
    H10     H    0.44490   0.94010   0.38330   1.000
    C8      C    0.19290   0.92030   0.41470   1.000
    H11     H    0.62570   0.69290   0.33440   1.000
    C9      C    0.66800   0.57900   0.44660   1.000
    H12     H    0.58380   0.54040   0.43890   1.000
    H13     H    0.67550   0.61450   0.50810   1.000
    H14     H    0.73390   0.51350   0.43790   1.000
    H15     H    0.63780   0.67460   0.42280   1.000
    C10     C    0.67600   0.58700   0.30000   1.000
    H16     H    0.60870   0.52580   0.31330   1.000
    H17     H    0.75800   0.54230   0.29460   1.000
    H18     H    0.65760   0.63020   0.24190   1.000
    O7      O    0.89580   0.92410   0.15650   1.000
    O8      O    0.91640   0.75040   0.23978   1.000
    O9      O    0.07110   0.32970   0.94250   1.000
    C11     C    0.96120   0.73530   0.07910   1.000
    C12     C    0.96330   0.60010   0.07960   1.000
    H19     H    0.94010   0.55510   0.13330   1.000
    C13     C    0.92030   0.80710   0.16470   1.000
    H20     H    0.69290   0.37430   0.08440   1.000
    C14     C    0.57900   0.33200   0.19660   1.000
    H21     H    0.54040   0.41620   0.18890   1.000
    H22     H    0.61450   0.32450   0.25810   1.000
    H23     H    0.51350   0.26610   0.18790   1.000
    H24     H    0.67460   0.36220   0.17280   1.000
    C15     C    0.58700   0.32400   0.05000   1.000
    H25     H    0.52580   0.39130   0.06330   1.000
    H26     H    0.54230   0.24200   0.04460   1.000
    H27     H    0.63020   0.34240   0.99190   1.000
    O10     O    0.10420   0.07590   0.65650   1.000
    O11     O    0.08360   0.24960   0.73978   1.000
    O12     O    0.92890   0.67030   0.44250   1.000
    C16     C    0.03880   0.26470   0.57910   1.000
    C17     C    0.03670   0.39990   0.57960   1.000
    H28     H    0.05990   0.44490   0.63330   1.000
    C18     C    0.07970   0.19290   0.66470   1.000
    H29     H    0.30710   0.62570   0.58440   1.000
    C19     C    0.42100   0.66800   0.69660   1.000
    H30     H    0.45960   0.58380   0.68890   1.000
    H31     H    0.38550   0.67550   0.75810   1.000
    H32     H    0.48650   0.73390   0.68790   1.000
    H33     H    0.32540   0.63780   0.67280   1.000
    C20     C    0.41300   0.67600   0.55000   1.000
    H34     H    0.47420   0.60870   0.56330   1.000
    H35     H    0.45770   0.75800   0.54460   1.000
    H36     H    0.36980   0.65760   0.49190   1.000
    O13     O    0.07590   0.10420   0.09350   1.000
    O14     O    0.24960   0.08360   0.01022   1.000
    O15     O    0.67030   0.92890   0.30750   1.000
    C21     C    0.26470   0.03880   0.17090   1.000
    C22     C    0.39990   0.03670   0.17040   1.000
    H37     H    0.44490   0.05990   0.11670   1.000
    C23     C    0.19290   0.07970   0.08530   1.000
    H38     H    0.62570   0.30710   0.16560   1.000
    C24     C    0.66800   0.42100   0.05340   1.000
    H39     H    0.58380   0.45960   0.06110   1.000
    H40     H    0.67550   0.38550   0.99190   1.000
    H41     H    0.73390   0.48650   0.06210   1.000
    H42     H    0.63780   0.32540   0.07720   1.000
    C25     C    0.67600   0.41300   0.20000   1.000
    H43     H    0.60870   0.47420   0.18670   1.000
    H44     H    0.75800   0.45770   0.20540   1.000
    H45     H    0.65760   0.36980   0.25810   1.000
    O16     O    0.92410   0.89580   0.59350   1.000
    O17     O    0.75040   0.91640   0.51022   1.000
    O18     O    0.32970   0.07110   0.80750   1.000
    C26     C    0.73530   0.96120   0.67090   1.000
    C27     C    0.60010   0.96330   0.67040   1.000
    H46     H    0.55510   0.94010   0.61670   1.000
    C28     C    0.80710   0.92030   0.58530   1.000
    H47     H    0.37430   0.69290   0.66560   1.000
    C29     C    0.33200   0.57900   0.55340   1.000
    H48     H    0.41620   0.54040   0.56110   1.000
    H49     H    0.32450   0.61450   0.49190   1.000
    H50     H    0.26610   0.51350   0.56210   1.000
    H51     H    0.36220   0.67460   0.57720   1.000
    C30     C    0.32400   0.58700   0.70000   1.000
    H52     H    0.39130   0.52580   0.68670   1.000
    H53     H    0.24200   0.54230   0.70540   1.000
    H54     H    0.34240   0.63020   0.75810   1.000
    O19     O    0.10420   0.92410   0.84350   1.000
    O20     O    0.08360   0.75040   0.76022   1.000
    O21     O    0.92890   0.32970   0.05750   1.000
    C31     C    0.03880   0.73530   0.92090   1.000
    C32     C    0.03670   0.60010   0.92040   1.000
    H55     H    0.05990   0.55510   0.86670   1.000
    C33     C    0.07970   0.80710   0.83530   1.000
    H56     H    0.30710   0.37430   0.91560   1.000
    C34     C    0.42100   0.33200   0.80340   1.000
    H57     H    0.45960   0.41620   0.81110   1.000
    H58     H    0.38550   0.32450   0.74190   1.000
    H59     H    0.48650   0.26610   0.81210   1.000
    H60     H    0.32540   0.36220   0.82720   1.000
    C35     C    0.41300   0.32400   0.95000   1.000
    H61     H    0.47420   0.39130   0.93670   1.000
    H62     H    0.45770   0.24200   0.95540   1.000
    H63     H    0.36980   0.34240   0.00810   1.000
    O22     O    0.89580   0.07590   0.34350   1.000
    O23     O    0.91640   0.24960   0.26022   1.000
    O24     O    0.07110   0.67030   0.55750   1.000
    C36     C    0.96120   0.26470   0.42090   1.000
    C37     C    0.96330   0.39990   0.42040   1.000
    H64     H    0.94010   0.44490   0.36670   1.000
    C38     C    0.92030   0.19290   0.33530   1.000
    H65     H    0.69290   0.62570   0.41560   1.000
    C39     C    0.57900   0.66800   0.30340   1.000
    H66     H    0.54040   0.58380   0.31110   1.000
    H67     H    0.61450   0.67550   0.24190   1.000
    H68     H    0.51350   0.73390   0.31210   1.000
    H69     H    0.67460   0.63780   0.32720   1.000
    C40     C    0.58700   0.67600   0.45000   1.000
    H70     H    0.52580   0.60870   0.43670   1.000
    H71     H    0.54230   0.75800   0.45540   1.000
    H72     H    0.63020   0.65760   0.50810   1.000
    Tb1     Tb   0.14258   0.14258   0.87500   1.000
    O25     O    0.31330   0.31330   0.87500   1.000
    O26     O    0.31590   0.31590   0.87500   1.000
    Tb2     Tb   0.85742   0.85742   0.37500   1.000
    O27     O    0.68670   0.68670   0.37500   1.000
    O28     O    0.68410   0.68410   0.37500   1.000
    Tb3     Tb   0.85742   0.14258   0.12500   1.000
    O29     O    0.68670   0.31330   0.12500   1.000
    O30     O    0.68410   0.31590   0.12500   1.000
    Tb4     Tb   0.14258   0.85742   0.62500   1.000
    O31     O    0.31330   0.68670   0.62500   1.000
    O32     O    0.31590   0.68410   0.62500   1.000
    C41     C    0.80070   0.00000   0.75000   1.000
    H73     H    0.89120   0.00000   0.75000   1.000
    C42     C    0.53170   0.00000   0.75000   1.000
    C43     C    0.38440   0.00000   0.75000   1.000
    C44     C    0.19930   0.00000   0.25000   1.000
    H74     H    0.10880   0.00000   0.25000   1.000
    C45     C    0.46830   0.00000   0.25000   1.000
    C46     C    0.61560   0.00000   0.25000   1.000
    C47     C    0.00000   0.80070   0.00000   1.000
    H75     H    0.00000   0.89120   0.00000   1.000
    C48     C    0.00000   0.53170   0.00000   1.000
    C49     C    0.00000   0.38440   0.00000   1.000
    C50     C    0.00000   0.19930   0.50000   1.000
    H76     H    0.00000   0.10880   0.50000   1.000
    C51     C    0.00000   0.46830   0.50000   1.000
    C52     C    0.00000   0.61560   0.50000   1.000
