# CIF file generated by openbabel 2.4.1, see http://openbabel.sf.net
data_I
_chemical_name_common 'image0'
_cell_length_a 33.505
_cell_length_b 33.505
_cell_length_c 16.824
_cell_angle_alpha 90
_cell_angle_beta 90
_cell_angle_gamma 90
_space_group_name_H-M_alt 'P 1'
_space_group_name_Hall 'P 1'
loop_
    _symmetry_equiv_pos_as_xyz
    x,y,z
loop_
    _atom_site_label
    _atom_site_type_symbol
    _atom_site_fract_x
    _atom_site_fract_y
    _atom_site_fract_z
    _atom_site_occupancy
    O1      O    0.71759   0.76790   0.10350   1.000
    O2      O    0.69870   0.84950   0.07780   1.000
    O3      O    0.75780   0.83880   0.14750   1.000
    O4      O    0.70690   0.14160   0.42030   1.000
    O5      O    0.76670   0.15160   0.34980   1.000
    C1      C    0.72560   0.85850   0.12950   1.000
    C2      C    0.72435   0.89954   0.16420   1.000
    C3      C    0.75141   0.91050   0.22290   1.000
    H1      H    0.77070   0.89190   0.24110   1.000
    C4      C    0.75012   0.94874   0.25500   1.000
    H2      H    0.76860   0.95630   0.29510   1.000
    C5      C    0.72179   0.97592   0.22820   1.000
    C6      C    0.69480   0.96490   0.16950   1.000
    C7      C    0.69600   0.92669   0.13750   1.000
    H3      H    0.67750   0.91920   0.09730   1.000
    C8      C    0.66600   0.99530   0.13640   1.000
    H4      H    0.66960   0.02070   0.16420   1.000
    H5      H    0.63860   0.98580   0.14400   1.000
    H6      H    0.67120   0.99900   0.07960   1.000
    C9      C    0.73480   0.13260   0.36840   1.000
    C10     C    0.72987   0.09260   0.32870   1.000
    C11     C    0.75552   0.08019   0.26870   1.000
    H7      H    0.77520   0.09790   0.24860   1.000
    C12     C    0.75230   0.04181   0.23790   1.000
    H8      H    0.76990   0.03330   0.19680   1.000
    C13     C    0.72350   0.01586   0.26720   1.000
    C14     C    0.69790   0.02827   0.32730   1.000
    C15     C    0.70105   0.06665   0.35800   1.000
    H9      H    0.68350   0.07510   0.39910   1.000
    C16     C    0.66650   0.00030   0.35950   1.000
    H10     H    0.66840   0.97450   0.33230   1.000
    H11     H    0.63990   0.01180   0.35060   1.000
    H12     H    0.67070   0.99650   0.41660   1.000
    H13     H    0.59010   0.46280   0.04660   1.000
    O6      O    0.28241   0.23210   0.10350   1.000
    O7      O    0.30130   0.15050   0.07780   1.000
    O8      O    0.24220   0.16120   0.14750   1.000
    O9      O    0.29310   0.85840   0.42030   1.000
    O10     O    0.23330   0.84840   0.34980   1.000
    C17     C    0.27440   0.14150   0.12950   1.000
    C18     C    0.27565   0.10046   0.16420   1.000
    C19     C    0.24859   0.08950   0.22290   1.000
    H14     H    0.22930   0.10810   0.24110   1.000
    C20     C    0.24988   0.05126   0.25500   1.000
    H15     H    0.23140   0.04370   0.29510   1.000
    C21     C    0.27821   0.02408   0.22820   1.000
    C22     C    0.30520   0.03510   0.16950   1.000
    C23     C    0.30400   0.07331   0.13750   1.000
    H16     H    0.32250   0.08080   0.09730   1.000
    C24     C    0.33400   0.00470   0.13640   1.000
    H17     H    0.33040   0.97930   0.16420   1.000
    H18     H    0.36140   0.01420   0.14400   1.000
    H19     H    0.32880   0.00100   0.07960   1.000
    C25     C    0.26520   0.86740   0.36840   1.000
    C26     C    0.27013   0.90740   0.32870   1.000
    C27     C    0.24448   0.91981   0.26870   1.000
    H20     H    0.22480   0.90210   0.24860   1.000
    C28     C    0.24770   0.95819   0.23790   1.000
    H21     H    0.23010   0.96670   0.19680   1.000
    C29     C    0.27650   0.98414   0.26720   1.000
    C30     C    0.30210   0.97173   0.32730   1.000
    C31     C    0.29895   0.93335   0.35800   1.000
    H22     H    0.31650   0.92490   0.39910   1.000
    C32     C    0.33350   0.99970   0.35950   1.000
    H23     H    0.33160   0.02550   0.33230   1.000
    H24     H    0.36010   0.98820   0.35060   1.000
    H25     H    0.32930   0.00350   0.41660   1.000
    H26     H    0.40990   0.53720   0.04660   1.000
    O11     O    0.73210   0.21759   0.60350   1.000
    O12     O    0.65050   0.19870   0.57780   1.000
    O13     O    0.66120   0.25780   0.64750   1.000
    O14     O    0.35840   0.20690   0.92030   1.000
    O15     O    0.34840   0.26670   0.84980   1.000
    C33     C    0.64150   0.22560   0.62950   1.000
    C34     C    0.60046   0.22435   0.66420   1.000
    C35     C    0.58950   0.25141   0.72290   1.000
    H27     H    0.60810   0.27070   0.74110   1.000
    C36     C    0.55126   0.25012   0.75500   1.000
    H28     H    0.54370   0.26860   0.79510   1.000
    C37     C    0.52408   0.22179   0.72820   1.000
    C38     C    0.53510   0.19480   0.66950   1.000
    C39     C    0.57331   0.19600   0.63750   1.000
    H29     H    0.58080   0.17750   0.59730   1.000
    C40     C    0.50470   0.16600   0.63640   1.000
    H30     H    0.47930   0.16960   0.66420   1.000
    H31     H    0.51420   0.13860   0.64400   1.000
    H32     H    0.50100   0.17120   0.57960   1.000
    C41     C    0.36740   0.23480   0.86840   1.000
    C42     C    0.40740   0.22987   0.82870   1.000
    C43     C    0.41981   0.25552   0.76870   1.000
    H33     H    0.40210   0.27520   0.74860   1.000
    C44     C    0.45819   0.25230   0.73790   1.000
    H34     H    0.46670   0.26990   0.69680   1.000
    C45     C    0.48414   0.22350   0.76720   1.000
    C46     C    0.47173   0.19790   0.82730   1.000
    C47     C    0.43335   0.20105   0.85800   1.000
    H35     H    0.42490   0.18350   0.89910   1.000
    C48     C    0.49970   0.16650   0.85950   1.000
    H36     H    0.52550   0.16840   0.83230   1.000
    H37     H    0.48820   0.13990   0.85060   1.000
    H38     H    0.50350   0.17070   0.91660   1.000
    H39     H    0.03720   0.09010   0.54660   1.000
    O16     O    0.26790   0.78241   0.60350   1.000
    O17     O    0.34950   0.80130   0.57780   1.000
    O18     O    0.33880   0.74220   0.64750   1.000
    O19     O    0.64160   0.79310   0.92030   1.000
    O20     O    0.65160   0.73330   0.84980   1.000
    C49     C    0.35850   0.77440   0.62950   1.000
    C50     C    0.39954   0.77565   0.66420   1.000
    C51     C    0.41050   0.74859   0.72290   1.000
    H40     H    0.39190   0.72930   0.74110   1.000
    C52     C    0.44874   0.74988   0.75500   1.000
    H41     H    0.45630   0.73140   0.79510   1.000
    C53     C    0.47592   0.77821   0.72820   1.000
    C54     C    0.46490   0.80520   0.66950   1.000
    C55     C    0.42669   0.80400   0.63750   1.000
    H42     H    0.41920   0.82250   0.59730   1.000
    C56     C    0.49530   0.83400   0.63640   1.000
    H43     H    0.52070   0.83040   0.66420   1.000
    H44     H    0.48580   0.86140   0.64400   1.000
    H45     H    0.49900   0.82880   0.57960   1.000
    C57     C    0.63260   0.76520   0.86840   1.000
    C58     C    0.59260   0.77013   0.82870   1.000
    C59     C    0.58019   0.74448   0.76870   1.000
    H46     H    0.59790   0.72480   0.74860   1.000
    C60     C    0.54181   0.74770   0.73790   1.000
    H47     H    0.53330   0.73010   0.69680   1.000
    C61     C    0.51586   0.77650   0.76720   1.000
    C62     C    0.52827   0.80210   0.82730   1.000
    C63     C    0.56665   0.79895   0.85800   1.000
    H48     H    0.57510   0.81650   0.89910   1.000
    C64     C    0.50030   0.83350   0.85950   1.000
    H49     H    0.47450   0.83160   0.83230   1.000
    H50     H    0.51180   0.86010   0.85060   1.000
    H51     H    0.49650   0.82930   0.91660   1.000
    H52     H    0.96280   0.90990   0.54660   1.000
    O21     O    0.78241   0.26790   0.39650   1.000
    O22     O    0.80130   0.34950   0.42220   1.000
    O23     O    0.74220   0.33880   0.35250   1.000
    O24     O    0.79310   0.64160   0.07970   1.000
    O25     O    0.73330   0.65160   0.15020   1.000
    C65     C    0.77440   0.35850   0.37050   1.000
    C66     C    0.77565   0.39954   0.33580   1.000
    C67     C    0.74859   0.41050   0.27710   1.000
    H53     H    0.72930   0.39190   0.25890   1.000
    C68     C    0.74988   0.44874   0.24500   1.000
    H54     H    0.73140   0.45630   0.20490   1.000
    C69     C    0.77821   0.47592   0.27180   1.000
    C70     C    0.80520   0.46490   0.33050   1.000
    C71     C    0.80400   0.42669   0.36250   1.000
    H55     H    0.82250   0.41920   0.40270   1.000
    C72     C    0.83400   0.49530   0.36360   1.000
    H56     H    0.83040   0.52070   0.33580   1.000
    H57     H    0.86140   0.48580   0.35600   1.000
    H58     H    0.82880   0.49900   0.42040   1.000
    C73     C    0.76520   0.63260   0.13160   1.000
    C74     C    0.77013   0.59260   0.17130   1.000
    C75     C    0.74448   0.58019   0.23130   1.000
    H59     H    0.72480   0.59790   0.25140   1.000
    C76     C    0.74770   0.54181   0.26210   1.000
    H60     H    0.73010   0.53330   0.30320   1.000
    C77     C    0.77650   0.51586   0.23280   1.000
    C78     C    0.80210   0.52827   0.17270   1.000
    C79     C    0.79895   0.56665   0.14200   1.000
    H61     H    0.81650   0.57510   0.10090   1.000
    C80     C    0.83350   0.50030   0.14050   1.000
    H62     H    0.83160   0.47450   0.16770   1.000
    H63     H    0.86010   0.51180   0.14940   1.000
    H64     H    0.82930   0.49650   0.08340   1.000
    H65     H    0.90990   0.96280   0.45340   1.000
    O26     O    0.21759   0.73210   0.39650   1.000
    O27     O    0.19870   0.65050   0.42220   1.000
    O28     O    0.25780   0.66120   0.35250   1.000
    O29     O    0.20690   0.35840   0.07970   1.000
    O30     O    0.26670   0.34840   0.15020   1.000
    C81     C    0.22560   0.64150   0.37050   1.000
    C82     C    0.22435   0.60046   0.33580   1.000
    C83     C    0.25141   0.58950   0.27710   1.000
    H66     H    0.27070   0.60810   0.25890   1.000
    C84     C    0.25012   0.55126   0.24500   1.000
    H67     H    0.26860   0.54370   0.20490   1.000
    C85     C    0.22179   0.52408   0.27180   1.000
    C86     C    0.19480   0.53510   0.33050   1.000
    C87     C    0.19600   0.57331   0.36250   1.000
    H68     H    0.17750   0.58080   0.40270   1.000
    C88     C    0.16600   0.50470   0.36360   1.000
    H69     H    0.16960   0.47930   0.33580   1.000
    H70     H    0.13860   0.51420   0.35600   1.000
    H71     H    0.17120   0.50100   0.42040   1.000
    C89     C    0.23480   0.36740   0.13160   1.000
    C90     C    0.22987   0.40740   0.17130   1.000
    C91     C    0.25552   0.41981   0.23130   1.000
    H72     H    0.27520   0.40210   0.25140   1.000
    C92     C    0.25230   0.45819   0.26210   1.000
    H73     H    0.26990   0.46670   0.30320   1.000
    C93     C    0.22350   0.48414   0.23280   1.000
    C94     C    0.19790   0.47173   0.17270   1.000
    C95     C    0.20105   0.43335   0.14200   1.000
    H74     H    0.18350   0.42490   0.10090   1.000
    C96     C    0.16650   0.49970   0.14050   1.000
    H75     H    0.16840   0.52550   0.16770   1.000
    H76     H    0.13990   0.48820   0.14940   1.000
    H77     H    0.17070   0.50350   0.08340   1.000
    H78     H    0.09010   0.03720   0.45340   1.000
    O31     O    0.76790   0.71759   0.89650   1.000
    O32     O    0.84950   0.69870   0.92220   1.000
    O33     O    0.83880   0.75780   0.85250   1.000
    O34     O    0.14160   0.70690   0.57970   1.000
    O35     O    0.15160   0.76670   0.65020   1.000
    C97     C    0.85850   0.72560   0.87050   1.000
    C98     C    0.89954   0.72435   0.83580   1.000
    C99     C    0.91050   0.75141   0.77710   1.000
    H79     H    0.89190   0.77070   0.75890   1.000
    C100    C    0.94874   0.75012   0.74500   1.000
    H80     H    0.95630   0.76860   0.70490   1.000
    C101    C    0.97592   0.72179   0.77180   1.000
    C102    C    0.96490   0.69480   0.83050   1.000
    C103    C    0.92669   0.69600   0.86250   1.000
    H81     H    0.91920   0.67750   0.90270   1.000
    C104    C    0.99530   0.66600   0.86360   1.000
    H82     H    0.02070   0.66960   0.83580   1.000
    H83     H    0.98580   0.63860   0.85600   1.000
    H84     H    0.99900   0.67120   0.92040   1.000
    C105    C    0.13260   0.73480   0.63160   1.000
    C106    C    0.09260   0.72987   0.67130   1.000
    C107    C    0.08019   0.75552   0.73130   1.000
    H85     H    0.09790   0.77520   0.75140   1.000
    C108    C    0.04181   0.75230   0.76210   1.000
    H86     H    0.03330   0.76990   0.80320   1.000
    C109    C    0.01586   0.72350   0.73280   1.000
    C110    C    0.02827   0.69790   0.67270   1.000
    C111    C    0.06665   0.70105   0.64200   1.000
    H87     H    0.07510   0.68350   0.60090   1.000
    C112    C    0.00030   0.66650   0.64050   1.000
    H88     H    0.97450   0.66840   0.66770   1.000
    H89     H    0.01180   0.63990   0.64940   1.000
    H90     H    0.99650   0.67070   0.58340   1.000
    H91     H    0.46280   0.59010   0.95340   1.000
    O36     O    0.23210   0.28241   0.89650   1.000
    O37     O    0.15050   0.30130   0.92220   1.000
    O38     O    0.16120   0.24220   0.85250   1.000
    O39     O    0.85840   0.29310   0.57970   1.000
    O40     O    0.84840   0.23330   0.65020   1.000
    C113    C    0.14150   0.27440   0.87050   1.000
    C114    C    0.10046   0.27565   0.83580   1.000
    C115    C    0.08950   0.24859   0.77710   1.000
    H92     H    0.10810   0.22930   0.75890   1.000
    C116    C    0.05126   0.24988   0.74500   1.000
    H93     H    0.04370   0.23140   0.70490   1.000
    C117    C    0.02408   0.27821   0.77180   1.000
    C118    C    0.03510   0.30520   0.83050   1.000
    C119    C    0.07331   0.30400   0.86250   1.000
    H94     H    0.08080   0.32250   0.90270   1.000
    C120    C    0.00470   0.33400   0.86360   1.000
    H95     H    0.97930   0.33040   0.83580   1.000
    H96     H    0.01420   0.36140   0.85600   1.000
    H97     H    0.00100   0.32880   0.92040   1.000
    C121    C    0.86740   0.26520   0.63160   1.000
    C122    C    0.90740   0.27013   0.67130   1.000
    C123    C    0.91981   0.24448   0.73130   1.000
    H98     H    0.90210   0.22480   0.75140   1.000
    C124    C    0.95819   0.24770   0.76210   1.000
    H99     H    0.96670   0.23010   0.80320   1.000
    C125    C    0.98414   0.27650   0.73280   1.000
    C126    C    0.97173   0.30210   0.67270   1.000
    C127    C    0.93335   0.29895   0.64200   1.000
    H100    H    0.92490   0.31650   0.60090   1.000
    C128    C    0.99970   0.33350   0.64050   1.000
    H101    H    0.02550   0.33160   0.66770   1.000
    H102    H    0.98820   0.36010   0.64940   1.000
    H103    H    0.00350   0.32930   0.58340   1.000
    H104    H    0.53720   0.40990   0.95340   1.000
    O41     O    0.28241   0.23210   0.89650   1.000
    O42     O    0.30130   0.15050   0.92220   1.000
    O43     O    0.24220   0.16120   0.85250   1.000
    O44     O    0.29310   0.85840   0.57970   1.000
    O45     O    0.23330   0.84840   0.65020   1.000
    C129    C    0.27440   0.14150   0.87050   1.000
    C130    C    0.27565   0.10046   0.83580   1.000
    C131    C    0.24859   0.08950   0.77710   1.000
    H105    H    0.22930   0.10810   0.75890   1.000
    C132    C    0.24988   0.05126   0.74500   1.000
    H106    H    0.23140   0.04370   0.70490   1.000
    C133    C    0.27821   0.02408   0.77180   1.000
    C134    C    0.30520   0.03510   0.83050   1.000
    C135    C    0.30400   0.07331   0.86250   1.000
    H107    H    0.32250   0.08080   0.90270   1.000
    C136    C    0.33400   0.00470   0.86360   1.000
    H108    H    0.33040   0.97930   0.83580   1.000
    H109    H    0.36140   0.01420   0.85600   1.000
    H110    H    0.32880   0.00100   0.92040   1.000
    C137    C    0.26520   0.86740   0.63160   1.000
    C138    C    0.27013   0.90740   0.67130   1.000
    C139    C    0.24448   0.91981   0.73130   1.000
    H111    H    0.22480   0.90210   0.75140   1.000
    C140    C    0.24770   0.95819   0.76210   1.000
    H112    H    0.23010   0.96670   0.80320   1.000
    C141    C    0.27650   0.98414   0.73280   1.000
    C142    C    0.30210   0.97173   0.67270   1.000
    C143    C    0.29895   0.93335   0.64200   1.000
    H113    H    0.31650   0.92490   0.60090   1.000
    C144    C    0.33350   0.99970   0.64050   1.000
    H114    H    0.33160   0.02550   0.66770   1.000
    H115    H    0.36010   0.98820   0.64940   1.000
    H116    H    0.32930   0.00350   0.58340   1.000
    H117    H    0.40990   0.53720   0.95340   1.000
    O46     O    0.71759   0.76790   0.89650   1.000
    O47     O    0.69870   0.84950   0.92220   1.000
    O48     O    0.75780   0.83880   0.85250   1.000
    O49     O    0.70690   0.14160   0.57970   1.000
    O50     O    0.76670   0.15160   0.65020   1.000
    C145    C    0.72560   0.85850   0.87050   1.000
    C146    C    0.72435   0.89954   0.83580   1.000
    C147    C    0.75141   0.91050   0.77710   1.000
    H118    H    0.77070   0.89190   0.75890   1.000
    C148    C    0.75012   0.94874   0.74500   1.000
    H119    H    0.76860   0.95630   0.70490   1.000
    C149    C    0.72179   0.97592   0.77180   1.000
    C150    C    0.69480   0.96490   0.83050   1.000
    C151    C    0.69600   0.92669   0.86250   1.000
    H120    H    0.67750   0.91920   0.90270   1.000
    C152    C    0.66600   0.99530   0.86360   1.000
    H121    H    0.66960   0.02070   0.83580   1.000
    H122    H    0.63860   0.98580   0.85600   1.000
    H123    H    0.67120   0.99900   0.92040   1.000
    C153    C    0.73480   0.13260   0.63160   1.000
    C154    C    0.72987   0.09260   0.67130   1.000
    C155    C    0.75552   0.08019   0.73130   1.000
    H124    H    0.77520   0.09790   0.75140   1.000
    C156    C    0.75230   0.04181   0.76210   1.000
    H125    H    0.76990   0.03330   0.80320   1.000
    C157    C    0.72350   0.01586   0.73280   1.000
    C158    C    0.69790   0.02827   0.67270   1.000
    C159    C    0.70105   0.06665   0.64200   1.000
    H126    H    0.68350   0.07510   0.60090   1.000
    C160    C    0.66650   0.00030   0.64050   1.000
    H127    H    0.66840   0.97450   0.66770   1.000
    H128    H    0.63990   0.01180   0.64940   1.000
    H129    H    0.67070   0.99650   0.58340   1.000
    H130    H    0.59010   0.46280   0.95340   1.000
    O51     O    0.26790   0.78241   0.39650   1.000
    O52     O    0.34950   0.80130   0.42220   1.000
    O53     O    0.33880   0.74220   0.35250   1.000
    O54     O    0.64160   0.79310   0.07970   1.000
    O55     O    0.65160   0.73330   0.15020   1.000
    C161    C    0.35850   0.77440   0.37050   1.000
    C162    C    0.39954   0.77565   0.33580   1.000
    C163    C    0.41050   0.74859   0.27710   1.000
    H131    H    0.39190   0.72930   0.25890   1.000
    C164    C    0.44874   0.74988   0.24500   1.000
    H132    H    0.45630   0.73140   0.20490   1.000
    C165    C    0.47592   0.77821   0.27180   1.000
    C166    C    0.46490   0.80520   0.33050   1.000
    C167    C    0.42669   0.80400   0.36250   1.000
    H133    H    0.41920   0.82250   0.40270   1.000
    C168    C    0.49530   0.83400   0.36360   1.000
    H134    H    0.52070   0.83040   0.33580   1.000
    H135    H    0.48580   0.86140   0.35600   1.000
    H136    H    0.49900   0.82880   0.42040   1.000
    C169    C    0.63260   0.76520   0.13160   1.000
    C170    C    0.59260   0.77013   0.17130   1.000
    C171    C    0.58019   0.74448   0.23130   1.000
    H137    H    0.59790   0.72480   0.25140   1.000
    C172    C    0.54181   0.74770   0.26210   1.000
    H138    H    0.53330   0.73010   0.30320   1.000
    C173    C    0.51586   0.77650   0.23280   1.000
    C174    C    0.52827   0.80210   0.17270   1.000
    C175    C    0.56665   0.79895   0.14200   1.000
    H139    H    0.57510   0.81650   0.10090   1.000
    C176    C    0.50030   0.83350   0.14050   1.000
    H140    H    0.47450   0.83160   0.16770   1.000
    H141    H    0.51180   0.86010   0.14940   1.000
    H142    H    0.49650   0.82930   0.08340   1.000
    H143    H    0.96280   0.90990   0.45340   1.000
    O56     O    0.73210   0.21759   0.39650   1.000
    O57     O    0.65050   0.19870   0.42220   1.000
    O58     O    0.66120   0.25780   0.35250   1.000
    O59     O    0.35840   0.20690   0.07970   1.000
    O60     O    0.34840   0.26670   0.15020   1.000
    C177    C    0.64150   0.22560   0.37050   1.000
    C178    C    0.60046   0.22435   0.33580   1.000
    C179    C    0.58950   0.25141   0.27710   1.000
    H144    H    0.60810   0.27070   0.25890   1.000
    C180    C    0.55126   0.25012   0.24500   1.000
    H145    H    0.54370   0.26860   0.20490   1.000
    C181    C    0.52408   0.22179   0.27180   1.000
    C182    C    0.53510   0.19480   0.33050   1.000
    C183    C    0.57331   0.19600   0.36250   1.000
    H146    H    0.58080   0.17750   0.40270   1.000
    C184    C    0.50470   0.16600   0.36360   1.000
    H147    H    0.47930   0.16960   0.33580   1.000
    H148    H    0.51420   0.13860   0.35600   1.000
    H149    H    0.50100   0.17120   0.42040   1.000
    C185    C    0.36740   0.23480   0.13160   1.000
    C186    C    0.40740   0.22987   0.17130   1.000
    C187    C    0.41981   0.25552   0.23130   1.000
    H150    H    0.40210   0.27520   0.25140   1.000
    C188    C    0.45819   0.25230   0.26210   1.000
    H151    H    0.46670   0.26990   0.30320   1.000
    C189    C    0.48414   0.22350   0.23280   1.000
    C190    C    0.47173   0.19790   0.17270   1.000
    C191    C    0.43335   0.20105   0.14200   1.000
    H152    H    0.42490   0.18350   0.10090   1.000
    C192    C    0.49970   0.16650   0.14050   1.000
    H153    H    0.52550   0.16840   0.16770   1.000
    H154    H    0.48820   0.13990   0.14940   1.000
    H155    H    0.50350   0.17070   0.08340   1.000
    H156    H    0.03720   0.09010   0.45340   1.000
    O61     O    0.21759   0.73210   0.60350   1.000
    O62     O    0.19870   0.65050   0.57780   1.000
    O63     O    0.25780   0.66120   0.64750   1.000
    O64     O    0.20690   0.35840   0.92030   1.000
    O65     O    0.26670   0.34840   0.84980   1.000
    C193    C    0.22560   0.64150   0.62950   1.000
    C194    C    0.22435   0.60046   0.66420   1.000
    C195    C    0.25141   0.58950   0.72290   1.000
    H157    H    0.27070   0.60810   0.74110   1.000
    C196    C    0.25012   0.55126   0.75500   1.000
    H158    H    0.26860   0.54370   0.79510   1.000
    C197    C    0.22179   0.52408   0.72820   1.000
    C198    C    0.19480   0.53510   0.66950   1.000
    C199    C    0.19600   0.57331   0.63750   1.000
    H159    H    0.17750   0.58080   0.59730   1.000
    C200    C    0.16600   0.50470   0.63640   1.000
    H160    H    0.16960   0.47930   0.66420   1.000
    H161    H    0.13860   0.51420   0.64400   1.000
    H162    H    0.17120   0.50100   0.57960   1.000
    C201    C    0.23480   0.36740   0.86840   1.000
    C202    C    0.22987   0.40740   0.82870   1.000
    C203    C    0.25552   0.41981   0.76870   1.000
    H163    H    0.27520   0.40210   0.74860   1.000
    C204    C    0.25230   0.45819   0.73790   1.000
    H164    H    0.26990   0.46670   0.69680   1.000
    C205    C    0.22350   0.48414   0.76720   1.000
    C206    C    0.19790   0.47173   0.82730   1.000
    C207    C    0.20105   0.43335   0.85800   1.000
    H165    H    0.18350   0.42490   0.89910   1.000
    C208    C    0.16650   0.49970   0.85950   1.000
    H166    H    0.16840   0.52550   0.83230   1.000
    H167    H    0.13990   0.48820   0.85060   1.000
    H168    H    0.17070   0.50350   0.91660   1.000
    H169    H    0.09010   0.03720   0.54660   1.000
    O66     O    0.78241   0.26790   0.60350   1.000
    O67     O    0.80130   0.34950   0.57780   1.000
    O68     O    0.74220   0.33880   0.64750   1.000
    O69     O    0.79310   0.64160   0.92030   1.000
    O70     O    0.73330   0.65160   0.84980   1.000
    C209    C    0.77440   0.35850   0.62950   1.000
    C210    C    0.77565   0.39954   0.66420   1.000
    C211    C    0.74859   0.41050   0.72290   1.000
    H170    H    0.72930   0.39190   0.74110   1.000
    C212    C    0.74988   0.44874   0.75500   1.000
    H171    H    0.73140   0.45630   0.79510   1.000
    C213    C    0.77821   0.47592   0.72820   1.000
    C214    C    0.80520   0.46490   0.66950   1.000
    C215    C    0.80400   0.42669   0.63750   1.000
    H172    H    0.82250   0.41920   0.59730   1.000
    C216    C    0.83400   0.49530   0.63640   1.000
    H173    H    0.83040   0.52070   0.66420   1.000
    H174    H    0.86140   0.48580   0.64400   1.000
    H175    H    0.82880   0.49900   0.57960   1.000
    C217    C    0.76520   0.63260   0.86840   1.000
    C218    C    0.77013   0.59260   0.82870   1.000
    C219    C    0.74448   0.58019   0.76870   1.000
    H176    H    0.72480   0.59790   0.74860   1.000
    C220    C    0.74770   0.54181   0.73790   1.000
    H177    H    0.73010   0.53330   0.69680   1.000
    C221    C    0.77650   0.51586   0.76720   1.000
    C222    C    0.80210   0.52827   0.82730   1.000
    C223    C    0.79895   0.56665   0.85800   1.000
    H178    H    0.81650   0.57510   0.89910   1.000
    C224    C    0.83350   0.50030   0.85950   1.000
    H179    H    0.83160   0.47450   0.83230   1.000
    H180    H    0.86010   0.51180   0.85060   1.000
    H181    H    0.82930   0.49650   0.91660   1.000
    H182    H    0.90990   0.96280   0.54660   1.000
    O71     O    0.23210   0.28241   0.10350   1.000
    O72     O    0.15050   0.30130   0.07780   1.000
    O73     O    0.16120   0.24220   0.14750   1.000
    O74     O    0.85840   0.29310   0.42030   1.000
    O75     O    0.84840   0.23330   0.34980   1.000
    C225    C    0.14150   0.27440   0.12950   1.000
    C226    C    0.10046   0.27565   0.16420   1.000
    C227    C    0.08950   0.24859   0.22290   1.000
    H183    H    0.10810   0.22930   0.24110   1.000
    C228    C    0.05126   0.24988   0.25500   1.000
    H184    H    0.04370   0.23140   0.29510   1.000
    C229    C    0.02408   0.27821   0.22820   1.000
    C230    C    0.03510   0.30520   0.16950   1.000
    C231    C    0.07331   0.30400   0.13750   1.000
    H185    H    0.08080   0.32250   0.09730   1.000
    C232    C    0.00470   0.33400   0.13640   1.000
    H186    H    0.97930   0.33040   0.16420   1.000
    H187    H    0.01420   0.36140   0.14400   1.000
    H188    H    0.00100   0.32880   0.07960   1.000
    C233    C    0.86740   0.26520   0.36840   1.000
    C234    C    0.90740   0.27013   0.32870   1.000
    C235    C    0.91981   0.24448   0.26870   1.000
    H189    H    0.90210   0.22480   0.24860   1.000
    C236    C    0.95819   0.24770   0.23790   1.000
    H190    H    0.96670   0.23010   0.19680   1.000
    C237    C    0.98414   0.27650   0.26720   1.000
    C238    C    0.97173   0.30210   0.32730   1.000
    C239    C    0.93335   0.29895   0.35800   1.000
    H191    H    0.92490   0.31650   0.39910   1.000
    C240    C    0.99970   0.33350   0.35950   1.000
    H192    H    0.02550   0.33160   0.33230   1.000
    H193    H    0.98820   0.36010   0.35060   1.000
    H194    H    0.00350   0.32930   0.41660   1.000
    H195    H    0.53720   0.40990   0.04660   1.000
    O76     O    0.76790   0.71759   0.10350   1.000
    O77     O    0.84950   0.69870   0.07780   1.000
    O78     O    0.83880   0.75780   0.14750   1.000
    O79     O    0.14160   0.70690   0.42030   1.000
    O80     O    0.15160   0.76670   0.34980   1.000
    C241    C    0.85850   0.72560   0.12950   1.000
    C242    C    0.89954   0.72435   0.16420   1.000
    C243    C    0.91050   0.75141   0.22290   1.000
    H196    H    0.89190   0.77070   0.24110   1.000
    C244    C    0.94874   0.75012   0.25500   1.000
    H197    H    0.95630   0.76860   0.29510   1.000
    C245    C    0.97592   0.72179   0.22820   1.000
    C246    C    0.96490   0.69480   0.16950   1.000
    C247    C    0.92669   0.69600   0.13750   1.000
    H198    H    0.91920   0.67750   0.09730   1.000
    C248    C    0.99530   0.66600   0.13640   1.000
    H199    H    0.02070   0.66960   0.16420   1.000
    H200    H    0.98580   0.63860   0.14400   1.000
    H201    H    0.99900   0.67120   0.07960   1.000
    C249    C    0.13260   0.73480   0.36840   1.000
    C250    C    0.09260   0.72987   0.32870   1.000
    C251    C    0.08019   0.75552   0.26870   1.000
    H202    H    0.09790   0.77520   0.24860   1.000
    C252    C    0.04181   0.75230   0.23790   1.000
    H203    H    0.03330   0.76990   0.19680   1.000
    C253    C    0.01586   0.72350   0.26720   1.000
    C254    C    0.02827   0.69790   0.32730   1.000
    C255    C    0.06665   0.70105   0.35800   1.000
    H204    H    0.07510   0.68350   0.39910   1.000
    C256    C    0.00030   0.66650   0.35950   1.000
    H205    H    0.97450   0.66840   0.33230   1.000
    H206    H    0.01180   0.63990   0.35060   1.000
    H207    H    0.99650   0.67070   0.41660   1.000
    H208    H    0.46280   0.59010   0.04660   1.000
    Zr1     Zr   0.69361   0.79805   0.00000   1.000
    O81     O    0.75200   0.80500   0.00000   1.000
    O82     O    0.68420   0.73550   0.00000   1.000
    C257    C    0.58430   0.47830   0.00000   1.000
    H209    H    0.60060   0.50200   0.00000   1.000
    C258    C    0.53940   0.48850   0.00000   1.000
    C259    C    0.49000   0.54080   0.00000   1.000
    H210    H    0.56680   0.48040   0.00000   1.000
    Zr2     Zr   0.30639   0.20195   0.00000   1.000
    O83     O    0.24800   0.19500   0.00000   1.000
    O84     O    0.31580   0.26450   0.00000   1.000
    C260    C    0.41570   0.52170   0.00000   1.000
    H211    H    0.39940   0.49800   0.00000   1.000
    C261    C    0.46060   0.51150   0.00000   1.000
    C262    C    0.51000   0.45920   0.00000   1.000
    H212    H    0.43320   0.51960   0.00000   1.000
    Zr3     Zr   0.70195   0.19361   0.50000   1.000
    O85     O    0.69500   0.25200   0.50000   1.000
    O86     O    0.76450   0.18420   0.50000   1.000
    C263    C    0.02170   0.08430   0.50000   1.000
    H213    H    0.99800   0.10060   0.50000   1.000
    C264    C    0.01150   0.03940   0.50000   1.000
    C265    C    0.95920   0.99000   0.50000   1.000
    H214    H    0.01960   0.06680   0.50000   1.000
    Zr4     Zr   0.29805   0.80639   0.50000   1.000
    O87     O    0.30500   0.74800   0.50000   1.000
    O88     O    0.23550   0.81580   0.50000   1.000
    C266    C    0.97830   0.91570   0.50000   1.000
    H215    H    0.00200   0.89940   0.50000   1.000
    C267    C    0.98850   0.96060   0.50000   1.000
    C268    C    0.04080   0.01000   0.50000   1.000
    H216    H    0.98040   0.93320   0.50000   1.000
    Zr5     Zr   0.80639   0.29805   0.50000   1.000
    O89     O    0.74800   0.30500   0.50000   1.000
    O90     O    0.81580   0.23550   0.50000   1.000
    C269    C    0.91570   0.97830   0.50000   1.000
    H217    H    0.89940   0.00200   0.50000   1.000
    C270    C    0.96060   0.98850   0.50000   1.000
    C271    C    0.01000   0.04080   0.50000   1.000
    H218    H    0.93320   0.98040   0.50000   1.000
    Zr6     Zr   0.19361   0.70195   0.50000   1.000
    O91     O    0.25200   0.69500   0.50000   1.000
    O92     O    0.18420   0.76450   0.50000   1.000
    C272    C    0.08430   0.02170   0.50000   1.000
    H219    H    0.10060   0.99800   0.50000   1.000
    C273    C    0.03940   0.01150   0.50000   1.000
    C274    C    0.99000   0.95920   0.50000   1.000
    H220    H    0.06680   0.01960   0.50000   1.000
    Zr7     Zr   0.79805   0.69361   0.00000   1.000
    O93     O    0.80500   0.75200   0.00000   1.000
    O94     O    0.73550   0.68420   0.00000   1.000
    C275    C    0.47830   0.58430   0.00000   1.000
    H221    H    0.50200   0.60060   0.00000   1.000
    C276    C    0.48850   0.53940   0.00000   1.000
    C277    C    0.54080   0.49000   0.00000   1.000
    H222    H    0.48040   0.56680   0.00000   1.000
    Zr8     Zr   0.20195   0.30639   0.00000   1.000
    O95     O    0.19500   0.24800   0.00000   1.000
    O96     O    0.26450   0.31580   0.00000   1.000
    C278    C    0.52170   0.41570   0.00000   1.000
    H223    H    0.49800   0.39940   0.00000   1.000
    C279    C    0.51150   0.46060   0.00000   1.000
    C280    C    0.45920   0.51000   0.00000   1.000
    H224    H    0.51960   0.43320   0.00000   1.000
    Zr9     Zr   0.78212   0.78212   0.10437   1.000
    Zr10    Zr   0.70871   0.70871   0.10389   1.000
    O97     O    0.66310   0.66310   0.06930   1.000
    C281    C    0.60592   0.60592   0.07153   1.000
    H225    H    0.61590   0.61590   0.12040   1.000
    C282    C    0.57658   0.57658   0.07153   1.000
    H226    H    0.56660   0.56660   0.12040   1.000
    C283    C    0.74020   0.74020   0.26290   1.000
    C284    C    0.73750   0.73750   0.35240   1.000
    C285    C    0.76150   0.76150   0.40000   1.000
    H227    H    0.77980   0.77980   0.37630   1.000
    C286    C    0.75887   0.75887   0.48230   1.000
    C287    C    0.73225   0.73225   0.51710   1.000
    C288    C    0.70826   0.70826   0.46940   1.000
    H228    H    0.68970   0.68970   0.49320   1.000
    C289    C    0.71090   0.71090   0.38720   1.000
    H229    H    0.69425   0.69425   0.35420   1.000
    C290    C    0.72960   0.72960   0.59930   1.000
    H230    H    0.71105   0.71105   0.62320   1.000
    C291    C    0.75360   0.75360   0.64690   1.000
    C292    C    0.78020   0.78020   0.61220   1.000
    H231    H    0.79655   0.79655   0.64520   1.000
    C293    C    0.78285   0.78285   0.52990   1.000
    C294    C    0.75090   0.75090   0.73610   1.000
    O98     O    0.71640   0.71640   0.22870   1.000
    O99     O    0.76540   0.76540   0.23870   1.000
    O100    O    0.72580   0.72580   0.76080   1.000
    O101    O    0.77430   0.77430   0.77150   1.000
    Zr11    Zr   0.21788   0.21788   0.10437   1.000
    Zr12    Zr   0.29129   0.29129   0.10389   1.000
    O102    O    0.33690   0.33690   0.06930   1.000
    C295    C    0.39408   0.39408   0.07153   1.000
    H232    H    0.38410   0.38410   0.12040   1.000
    C296    C    0.42342   0.42342   0.07153   1.000
    H233    H    0.43340   0.43340   0.12040   1.000
    C297    C    0.25980   0.25980   0.26290   1.000
    C298    C    0.26250   0.26250   0.35240   1.000
    C299    C    0.23850   0.23850   0.40000   1.000
    H234    H    0.22020   0.22020   0.37630   1.000
    C300    C    0.24113   0.24113   0.48230   1.000
    C301    C    0.26775   0.26775   0.51710   1.000
    C302    C    0.29174   0.29174   0.46940   1.000
    H235    H    0.31030   0.31030   0.49320   1.000
    C303    C    0.28910   0.28910   0.38720   1.000
    H236    H    0.30575   0.30575   0.35420   1.000
    C304    C    0.27040   0.27040   0.59930   1.000
    H237    H    0.28895   0.28895   0.62320   1.000
    C305    C    0.24640   0.24640   0.64690   1.000
    C306    C    0.21980   0.21980   0.61220   1.000
    H238    H    0.20345   0.20345   0.64520   1.000
    C307    C    0.21715   0.21715   0.52990   1.000
    C308    C    0.24910   0.24910   0.73610   1.000
    O103    O    0.28360   0.28360   0.22870   1.000
    O104    O    0.23460   0.23460   0.23870   1.000
    O105    O    0.27420   0.27420   0.76080   1.000
    O106    O    0.22570   0.22570   0.77150   1.000
    Zr13    Zr   0.71788   0.28212   0.60437   1.000
    Zr14    Zr   0.79129   0.20871   0.60389   1.000
    O107    O    0.83690   0.16310   0.56930   1.000
    C309    C    0.89408   0.10592   0.57153   1.000
    H239    H    0.88410   0.11590   0.62040   1.000
    C310    C    0.92342   0.07658   0.57153   1.000
    H240    H    0.93340   0.06660   0.62040   1.000
    C311    C    0.75980   0.24020   0.76290   1.000
    C312    C    0.76250   0.23750   0.85240   1.000
    C313    C    0.73850   0.26150   0.90000   1.000
    H241    H    0.72020   0.27980   0.87630   1.000
    C314    C    0.74113   0.25887   0.98230   1.000
    C315    C    0.76775   0.23225   0.01710   1.000
    C316    C    0.79174   0.20826   0.96940   1.000
    H242    H    0.81030   0.18970   0.99320   1.000
    C317    C    0.78910   0.21090   0.88720   1.000
    H243    H    0.80575   0.19425   0.85420   1.000
    C318    C    0.77040   0.22960   0.09930   1.000
    H244    H    0.78895   0.21105   0.12320   1.000
    C319    C    0.74640   0.25360   0.14690   1.000
    C320    C    0.71980   0.28020   0.11220   1.000
    H245    H    0.70345   0.29655   0.14520   1.000
    C321    C    0.71715   0.28285   0.02990   1.000
    C322    C    0.74910   0.25090   0.23610   1.000
    O108    O    0.78360   0.21640   0.72870   1.000
    O109    O    0.73460   0.26540   0.73870   1.000
    O110    O    0.77420   0.22580   0.26080   1.000
    O111    O    0.72570   0.27430   0.27150   1.000
    Zr15    Zr   0.28212   0.71788   0.60437   1.000
    Zr16    Zr   0.20871   0.79129   0.60389   1.000
    O112    O    0.16310   0.83690   0.56930   1.000
    C323    C    0.10592   0.89408   0.57153   1.000
    H246    H    0.11590   0.88410   0.62040   1.000
    C324    C    0.07658   0.92342   0.57153   1.000
    H247    H    0.06660   0.93340   0.62040   1.000
    C325    C    0.24020   0.75980   0.76290   1.000
    C326    C    0.23750   0.76250   0.85240   1.000
    C327    C    0.26150   0.73850   0.90000   1.000
    H248    H    0.27980   0.72020   0.87630   1.000
    C328    C    0.25887   0.74113   0.98230   1.000
    C329    C    0.23225   0.76775   0.01710   1.000
    C330    C    0.20826   0.79174   0.96940   1.000
    H249    H    0.18970   0.81030   0.99320   1.000
    C331    C    0.21090   0.78910   0.88720   1.000
    H250    H    0.19425   0.80575   0.85420   1.000
    C332    C    0.22960   0.77040   0.09930   1.000
    H251    H    0.21105   0.78895   0.12320   1.000
    C333    C    0.25360   0.74640   0.14690   1.000
    C334    C    0.28020   0.71980   0.11220   1.000
    H252    H    0.29655   0.70345   0.14520   1.000
    C335    C    0.28285   0.71715   0.02990   1.000
    C336    C    0.25090   0.74910   0.23610   1.000
    O113    O    0.21640   0.78360   0.72870   1.000
    O114    O    0.26540   0.73460   0.73870   1.000
    O115    O    0.22580   0.77420   0.26080   1.000
    O116    O    0.27430   0.72570   0.27150   1.000
    Zr17    Zr   0.71788   0.28212   0.39563   1.000
    Zr18    Zr   0.79129   0.20871   0.39611   1.000
    O117    O    0.83690   0.16310   0.43070   1.000
    C337    C    0.89408   0.10592   0.42847   1.000
    H253    H    0.88410   0.11590   0.37960   1.000
    C338    C    0.92342   0.07658   0.42847   1.000
    H254    H    0.93340   0.06660   0.37960   1.000
    C339    C    0.75980   0.24020   0.23710   1.000
    C340    C    0.76250   0.23750   0.14760   1.000
    C341    C    0.73850   0.26150   0.10000   1.000
    H255    H    0.72020   0.27980   0.12370   1.000
    C342    C    0.74113   0.25887   0.01770   1.000
    C343    C    0.76775   0.23225   0.98290   1.000
    C344    C    0.79174   0.20826   0.03060   1.000
    H256    H    0.81030   0.18970   0.00680   1.000
    C345    C    0.78910   0.21090   0.11280   1.000
    H257    H    0.80575   0.19425   0.14580   1.000
    C346    C    0.77040   0.22960   0.90070   1.000
    H258    H    0.78895   0.21105   0.87680   1.000
    C347    C    0.74640   0.25360   0.85310   1.000
    C348    C    0.71980   0.28020   0.88780   1.000
    H259    H    0.70345   0.29655   0.85480   1.000
    C349    C    0.71715   0.28285   0.97010   1.000
    C350    C    0.74910   0.25090   0.76390   1.000
    O118    O    0.78360   0.21640   0.27130   1.000
    O119    O    0.73460   0.26540   0.26130   1.000
    O120    O    0.77420   0.22580   0.73920   1.000
    O121    O    0.72570   0.27430   0.72850   1.000
    Zr19    Zr   0.28212   0.71788   0.39563   1.000
    Zr20    Zr   0.20871   0.79129   0.39611   1.000
    O122    O    0.16310   0.83690   0.43070   1.000
    C351    C    0.10592   0.89408   0.42847   1.000
    H260    H    0.11590   0.88410   0.37960   1.000
    C352    C    0.07658   0.92342   0.42847   1.000
    H261    H    0.06660   0.93340   0.37960   1.000
    C353    C    0.24020   0.75980   0.23710   1.000
    C354    C    0.23750   0.76250   0.14760   1.000
    C355    C    0.26150   0.73850   0.10000   1.000
    H262    H    0.27980   0.72020   0.12370   1.000
    C356    C    0.25887   0.74113   0.01770   1.000
    C357    C    0.23225   0.76775   0.98290   1.000
    C358    C    0.20826   0.79174   0.03060   1.000
    H263    H    0.18970   0.81030   0.00680   1.000
    C359    C    0.21090   0.78910   0.11280   1.000
    H264    H    0.19425   0.80575   0.14580   1.000
    C360    C    0.22960   0.77040   0.90070   1.000
    H265    H    0.21105   0.78895   0.87680   1.000
    C361    C    0.25360   0.74640   0.85310   1.000
    C362    C    0.28020   0.71980   0.88780   1.000
    H266    H    0.29655   0.70345   0.85480   1.000
    C363    C    0.28285   0.71715   0.97010   1.000
    C364    C    0.25090   0.74910   0.76390   1.000
    O123    O    0.21640   0.78360   0.27130   1.000
    O124    O    0.26540   0.73460   0.26130   1.000
    O125    O    0.22580   0.77420   0.73920   1.000
    O126    O    0.27430   0.72570   0.72850   1.000
    Zr21    Zr   0.78212   0.78212   0.89563   1.000
    Zr22    Zr   0.70871   0.70871   0.89611   1.000
    O127    O    0.66310   0.66310   0.93070   1.000
    C365    C    0.60592   0.60592   0.92847   1.000
    H267    H    0.61590   0.61590   0.87960   1.000
    C366    C    0.57658   0.57658   0.92847   1.000
    H268    H    0.56660   0.56660   0.87960   1.000
    C367    C    0.74020   0.74020   0.73710   1.000
    C368    C    0.73750   0.73750   0.64760   1.000
    C369    C    0.76150   0.76150   0.60000   1.000
    H269    H    0.77980   0.77980   0.62370   1.000
    C370    C    0.75887   0.75887   0.51770   1.000
    C371    C    0.73225   0.73225   0.48290   1.000
    C372    C    0.70826   0.70826   0.53060   1.000
    H270    H    0.68970   0.68970   0.50680   1.000
    C373    C    0.71090   0.71090   0.61280   1.000
    H271    H    0.69425   0.69425   0.64580   1.000
    C374    C    0.72960   0.72960   0.40070   1.000
    H272    H    0.71105   0.71105   0.37680   1.000
    C375    C    0.75360   0.75360   0.35310   1.000
    C376    C    0.78020   0.78020   0.38780   1.000
    H273    H    0.79655   0.79655   0.35480   1.000
    C377    C    0.78285   0.78285   0.47010   1.000
    C378    C    0.75090   0.75090   0.26390   1.000
    O128    O    0.71640   0.71640   0.77130   1.000
    O129    O    0.76540   0.76540   0.76130   1.000
    O130    O    0.72580   0.72580   0.23920   1.000
    O131    O    0.77430   0.77430   0.22850   1.000
    Zr23    Zr   0.21788   0.21788   0.89563   1.000
    Zr24    Zr   0.29129   0.29129   0.89611   1.000
    O132    O    0.33690   0.33690   0.93070   1.000
    C379    C    0.39408   0.39408   0.92847   1.000
    H274    H    0.38410   0.38410   0.87960   1.000
    C380    C    0.42342   0.42342   0.92847   1.000
    H275    H    0.43340   0.43340   0.87960   1.000
    C381    C    0.25980   0.25980   0.73710   1.000
    C382    C    0.26250   0.26250   0.64760   1.000
    C383    C    0.23850   0.23850   0.60000   1.000
    H276    H    0.22020   0.22020   0.62370   1.000
    C384    C    0.24113   0.24113   0.51770   1.000
    C385    C    0.26775   0.26775   0.48290   1.000
    C386    C    0.29174   0.29174   0.53060   1.000
    H277    H    0.31030   0.31030   0.50680   1.000
    C387    C    0.28910   0.28910   0.61280   1.000
    H278    H    0.30575   0.30575   0.64580   1.000
    C388    C    0.27040   0.27040   0.40070   1.000
    H279    H    0.28895   0.28895   0.37680   1.000
    C389    C    0.24640   0.24640   0.35310   1.000
    C390    C    0.21980   0.21980   0.38780   1.000
    H280    H    0.20345   0.20345   0.35480   1.000
    C391    C    0.21715   0.21715   0.47010   1.000
    C392    C    0.24910   0.24910   0.26390   1.000
    O133    O    0.28360   0.28360   0.77130   1.000
    O134    O    0.23460   0.23460   0.76130   1.000
    O135    O    0.27420   0.27420   0.23920   1.000
    O136    O    0.22570   0.22570   0.22850   1.000
    C393    C    0.65250   0.65250   0.00000   1.000
    C394    C    0.62060   0.62060   0.00000   1.000
    C395    C    0.56190   0.56190   0.00000   1.000
    C396    C    0.53010   0.53010   0.00000   1.000
    C397    C    0.34750   0.34750   0.00000   1.000
    C398    C    0.37940   0.37940   0.00000   1.000
    C399    C    0.43810   0.43810   0.00000   1.000
    C400    C    0.46990   0.46990   0.00000   1.000
    C401    C    0.84750   0.15250   0.50000   1.000
    C402    C    0.87940   0.12060   0.50000   1.000
    C403    C    0.93810   0.06190   0.50000   1.000
    C404    C    0.96990   0.03010   0.50000   1.000
    C405    C    0.15250   0.84750   0.50000   1.000
    C406    C    0.12060   0.87940   0.50000   1.000
    C407    C    0.06190   0.93810   0.50000   1.000
    C408    C    0.03010   0.96990   0.50000   1.000
    H281    H    0.80115   0.80115   0.50000   1.000
    H282    H    0.19885   0.19885   0.50000   1.000
    H283    H    0.69885   0.30115   0.00000   1.000
    H284    H    0.30115   0.69885   0.00000   1.000
