# CIF file generated by openbabel 2.4.1, see http://openbabel.sf.net
data_I
_chemical_name_common 'image0'
_cell_length_a 19.6369
_cell_length_b 20.2159
_cell_length_c 22.1129
_cell_angle_alpha 90
_cell_angle_beta 90
_cell_angle_gamma 90
_space_group_name_H-M_alt 'P 1'
_space_group_name_Hall 'P 1'
loop_
    _symmetry_equiv_pos_as_xyz
    x,y,z
loop_
    _atom_site_label
    _atom_site_type_symbol
    _atom_site_fract_x
    _atom_site_fract_y
    _atom_site_fract_z
    _atom_site_occupancy
    Na1     Na   0.41873   0.05156   0.41323   1.000
    Na2     Na   0.05376   0.93134   0.39225   1.000
    N1      N    0.29500   0.01581   0.41170   1.000
    N2      N    0.16921   0.97527   0.40697   1.000
    N3      N    0.42550   0.17704   0.39650   1.000
    N4      N    0.07140   0.80559   0.38880   1.000
    N5      N    0.46800   0.00983   0.31496   1.000
    N6      N    0.02630   0.97360   0.28583   1.000
    C1      C    0.28000   0.98050   0.35440   1.000
    H1      H    0.31360   0.94460   0.34860   1.000
    H2      H    0.28420   0.01160   0.32010   1.000
    C2      C    0.20790   0.95120   0.35520   1.000
    H3      H    0.18400   0.96330   0.31740   1.000
    H4      H    0.21090   0.90230   0.35700   1.000
    C3      C    0.27920   0.96980   0.46160   1.000
    H5      H    0.29160   0.99060   0.50060   1.000
    H6      H    0.30670   0.92900   0.45690   1.000
    C4      C    0.20330   0.95170   0.46220   1.000
    H7      H    0.19830   0.90310   0.46540   1.000
    H8      H    0.18130   0.97190   0.49810   1.000
    C5      C    0.24710   0.07190   0.41570   1.000
    H9      H    0.25820   0.10480   0.38420   1.000
    H10     H    0.25190   0.09350   0.45570   1.000
    C6      C    0.17250   0.04770   0.40740   1.000
    H11     H    0.14390   0.06500   0.44070   1.000
    H12     H    0.15410   0.06510   0.36880   1.000
    C7      C    0.49610   0.20180   0.39370   1.000
    H13     H    0.51970   0.18160   0.35880   1.000
    H14     H    0.52070   0.18890   0.43090   1.000
    C8      C    0.00280   0.77750   0.38730   1.000
    H15     H    0.97550   0.79670   0.42060   1.000
    H16     H    0.98070   0.78950   0.34860   1.000
    C9      C    0.39060   0.20010   0.34210   1.000
    H17     H    0.34320   0.18350   0.34220   1.000
    H18     H    0.41380   0.18200   0.30600   1.000
    C10     C    0.11000   0.77650   0.33850   1.000
    H19     H    0.08970   0.79070   0.29960   1.000
    H20     H    0.15760   0.79250   0.33980   1.000
    C11     C    0.39310   0.20770   0.44910   1.000
    H21     H    0.41650   0.19310   0.48640   1.000
    H22     H    0.34500   0.19330   0.45150   1.000
    C12     C    0.10400   0.78400   0.44480   1.000
    H23     H    0.15080   0.80210   0.44660   1.000
    H24     H    0.07830   0.80170   0.47980   1.000
    C13     C    0.47830   0.93770   0.31340   1.000
    H25     H    0.43380   0.91510   0.31790   1.000
    H26     H    0.50760   0.92420   0.34760   1.000
    C14     C    0.01180   0.91630   0.24680   1.000
    H27     H    0.05480   0.89250   0.23810   1.000
    H28     H    0.98100   0.88550   0.26840   1.000
    C15     C    0.42690   0.02770   0.26170   1.000
    H29     H    0.41870   0.07600   0.26170   1.000
    H30     H    0.38220   0.00520   0.26410   1.000
    C16     C    0.96210   0.00830   0.29670   1.000
    H31     H    0.93150   0.97940   0.32050   1.000
    H32     H    0.97120   0.04850   0.32090   1.000
    C17     C    0.53530   0.04100   0.30740   1.000
    H33     H    0.56450   0.02940   0.34230   1.000
    H34     H    0.52990   0.08970   0.30690   1.000
    C18     C    0.07040   0.01880   0.25120   1.000
    H35     H    0.08120   0.05810   0.27620   1.000
    H36     H    0.11370   0.99630   0.24120   1.000
    C19     C    0.97790   0.03730   0.47400   1.000
    C20     C    0.97710   0.98440   0.48170   1.000
    H37     H    0.94510   0.06540   0.43480   1.000
    C21     C    0.98030   0.90460   0.50720   1.000
    H38     H    0.98110   0.85930   0.51850   1.000
    C22     C    0.93530   0.92630   0.46290   1.000
    H39     H    0.90540   0.89570   0.44390   1.000
    C23     C    0.93410   0.99260   0.44630   1.000
    H40     H    0.90330   0.00730   0.41600   1.000
    H41     H    0.96460   0.90600   0.42860   1.000
    H42     H    0.90720   0.91340   0.47950   1.000
    H43     H    0.97710   0.08260   0.46270   1.000
    C24     C    0.02410   0.94930   0.53490   1.000
    C25     C    0.06450   0.06260   0.54970   1.000
    H44     H    0.09380   0.03940   0.57860   1.000
    Na3     Na   0.08127   0.94844   0.91323   1.000
    Na4     Na   0.44624   0.06866   0.89225   1.000
    N7      N    0.20500   0.98419   0.91170   1.000
    N8      N    0.33079   0.02473   0.90697   1.000
    N9      N    0.07450   0.82296   0.89650   1.000
    N10     N    0.42860   0.19441   0.88880   1.000
    N11     N    0.03200   0.99017   0.81496   1.000
    N12     N    0.47370   0.02640   0.78583   1.000
    C26     C    0.22000   0.01950   0.85440   1.000
    H45     H    0.18640   0.05540   0.84860   1.000
    H46     H    0.21580   0.98840   0.82010   1.000
    C27     C    0.29210   0.04880   0.85520   1.000
    H47     H    0.31600   0.03670   0.81740   1.000
    H48     H    0.28910   0.09770   0.85700   1.000
    C28     C    0.22080   0.03020   0.96160   1.000
    H49     H    0.20840   0.00940   0.00060   1.000
    H50     H    0.19330   0.07100   0.95690   1.000
    C29     C    0.29670   0.04830   0.96220   1.000
    H51     H    0.30170   0.09690   0.96540   1.000
    H52     H    0.31870   0.02810   0.99810   1.000
    C30     C    0.25290   0.92810   0.91570   1.000
    H53     H    0.24180   0.89520   0.88420   1.000
    H54     H    0.24810   0.90650   0.95570   1.000
    C31     C    0.32750   0.95230   0.90740   1.000
    H55     H    0.35610   0.93500   0.94070   1.000
    H56     H    0.34590   0.93490   0.86880   1.000
    C32     C    0.00390   0.79820   0.89370   1.000
    H57     H    0.98030   0.81840   0.85880   1.000
    H58     H    0.97930   0.81110   0.93090   1.000
    C33     C    0.49720   0.22250   0.88730   1.000
    H59     H    0.52450   0.20330   0.92060   1.000
    H60     H    0.51930   0.21050   0.84860   1.000
    C34     C    0.10940   0.79990   0.84210   1.000
    H61     H    0.15680   0.81650   0.84220   1.000
    H62     H    0.08620   0.81800   0.80600   1.000
    C35     C    0.39000   0.22350   0.83850   1.000
    H63     H    0.41030   0.20930   0.79960   1.000
    H64     H    0.34240   0.20750   0.83980   1.000
    C36     C    0.10690   0.79230   0.94910   1.000
    H65     H    0.08350   0.80690   0.98640   1.000
    H66     H    0.15500   0.80670   0.95150   1.000
    C37     C    0.39600   0.21600   0.94480   1.000
    H67     H    0.34920   0.19790   0.94660   1.000
    H68     H    0.42170   0.19830   0.97980   1.000
    C38     C    0.02170   0.06230   0.81340   1.000
    H69     H    0.06620   0.08490   0.81790   1.000
    H70     H    0.99240   0.07580   0.84760   1.000
    C39     C    0.48820   0.08370   0.74680   1.000
    H71     H    0.44520   0.10750   0.73810   1.000
    H72     H    0.51900   0.11450   0.76840   1.000
    C40     C    0.07310   0.97230   0.76170   1.000
    H73     H    0.08130   0.92400   0.76170   1.000
    H74     H    0.11780   0.99480   0.76410   1.000
    C41     C    0.53790   0.99170   0.79670   1.000
    H75     H    0.56850   0.02060   0.82050   1.000
    H76     H    0.52880   0.95150   0.82090   1.000
    C42     C    0.96470   0.95900   0.80740   1.000
    H77     H    0.93550   0.97060   0.84230   1.000
    H78     H    0.97010   0.91030   0.80690   1.000
    C43     C    0.42960   0.98120   0.75120   1.000
    H79     H    0.41880   0.94190   0.77620   1.000
    H80     H    0.38630   0.00370   0.74120   1.000
    C44     C    0.52210   0.96270   0.97400   1.000
    C45     C    0.52290   0.01560   0.98170   1.000
    H81     H    0.55490   0.93460   0.93480   1.000
    C46     C    0.51970   0.09540   0.00720   1.000
    H82     H    0.51890   0.14070   0.01850   1.000
    C47     C    0.56470   0.07370   0.96290   1.000
    H83     H    0.59460   0.10430   0.94390   1.000
    C48     C    0.56590   0.00740   0.94630   1.000
    H84     H    0.59670   0.99270   0.91600   1.000
    H85     H    0.53540   0.09400   0.92860   1.000
    H86     H    0.59280   0.08660   0.97950   1.000
    H87     H    0.52290   0.91740   0.96270   1.000
    C49     C    0.47590   0.05070   0.03490   1.000
    C50     C    0.43550   0.93740   0.04970   1.000
    H88     H    0.40620   0.96060   0.07860   1.000
    Na5     Na   0.58127   0.55156   0.08677   1.000
    Na6     Na   0.94624   0.43134   0.10775   1.000
    N13     N    0.70500   0.51581   0.08830   1.000
    N14     N    0.83079   0.47527   0.09303   1.000
    N15     N    0.57450   0.67704   0.10350   1.000
    N16     N    0.92860   0.30559   0.11120   1.000
    N17     N    0.53200   0.50983   0.18504   1.000
    N18     N    0.97370   0.47360   0.21417   1.000
    C51     C    0.72000   0.48050   0.14560   1.000
    H89     H    0.68640   0.44460   0.15140   1.000
    H90     H    0.71580   0.51160   0.17990   1.000
    C52     C    0.79210   0.45120   0.14480   1.000
    H91     H    0.81600   0.46330   0.18260   1.000
    H92     H    0.78910   0.40230   0.14300   1.000
    C53     C    0.72080   0.46980   0.03840   1.000
    H93     H    0.70840   0.49060   0.99940   1.000
    H94     H    0.69330   0.42900   0.04310   1.000
    C54     C    0.79670   0.45170   0.03780   1.000
    H95     H    0.80170   0.40310   0.03460   1.000
    H96     H    0.81870   0.47190   0.00190   1.000
    C55     C    0.75290   0.57190   0.08430   1.000
    H97     H    0.74180   0.60480   0.11580   1.000
    H98     H    0.74810   0.59350   0.04430   1.000
    C56     C    0.82750   0.54770   0.09260   1.000
    H99     H    0.85610   0.56500   0.05930   1.000
    H100    H    0.84590   0.56510   0.13120   1.000
    C57     C    0.50390   0.70180   0.10630   1.000
    H101    H    0.48030   0.68160   0.14120   1.000
    H102    H    0.47930   0.68890   0.06910   1.000
    C58     C    0.99720   0.27750   0.11270   1.000
    H103    H    0.02450   0.29670   0.07940   1.000
    H104    H    0.01930   0.28950   0.15140   1.000
    C59     C    0.60940   0.70010   0.15790   1.000
    H105    H    0.65680   0.68350   0.15780   1.000
    H106    H    0.58620   0.68200   0.19400   1.000
    C60     C    0.89000   0.27650   0.16150   1.000
    H107    H    0.91030   0.29070   0.20040   1.000
    H108    H    0.84240   0.29250   0.16020   1.000
    C61     C    0.60690   0.70770   0.05090   1.000
    H109    H    0.58350   0.69310   0.01360   1.000
    H110    H    0.65500   0.69330   0.04850   1.000
    C62     C    0.89600   0.28400   0.05520   1.000
    H111    H    0.84920   0.30210   0.05340   1.000
    H112    H    0.92170   0.30170   0.02020   1.000
    C63     C    0.52170   0.43770   0.18660   1.000
    H113    H    0.56620   0.41510   0.18210   1.000
    H114    H    0.49240   0.42420   0.15240   1.000
    C64     C    0.98820   0.41630   0.25320   1.000
    H115    H    0.94520   0.39250   0.26190   1.000
    H116    H    0.01900   0.38550   0.23160   1.000
    C65     C    0.57310   0.52770   0.23830   1.000
    H117    H    0.58130   0.57600   0.23830   1.000
    H118    H    0.61780   0.50520   0.23590   1.000
    C66     C    0.03790   0.50830   0.20330   1.000
    H119    H    0.06850   0.47940   0.17950   1.000
    H120    H    0.02880   0.54850   0.17910   1.000
    C67     C    0.46470   0.54100   0.19260   1.000
    H121    H    0.43550   0.52940   0.15770   1.000
    H122    H    0.47010   0.58970   0.19310   1.000
    C68     C    0.92960   0.51880   0.24880   1.000
    H123    H    0.91880   0.55810   0.22380   1.000
    H124    H    0.88630   0.49630   0.25880   1.000
    C69     C    0.02210   0.53730   0.02600   1.000
    C70     C    0.02290   0.48440   0.01830   1.000
    H125    H    0.05490   0.56540   0.06520   1.000
    C71     C    0.01970   0.40460   0.99280   1.000
    H126    H    0.01890   0.35930   0.98150   1.000
    C72     C    0.06470   0.42630   0.03710   1.000
    H127    H    0.09460   0.39570   0.05610   1.000
    C73     C    0.06590   0.49260   0.05370   1.000
    H128    H    0.09670   0.50730   0.08400   1.000
    H129    H    0.03540   0.40600   0.07140   1.000
    H130    H    0.09280   0.41340   0.02050   1.000
    H131    H    0.02290   0.58260   0.03730   1.000
    C74     C    0.97590   0.44930   0.96510   1.000
    C75     C    0.93550   0.56260   0.95030   1.000
    H132    H    0.90620   0.53940   0.92140   1.000
    Na7     Na   0.91873   0.44844   0.58677   1.000
    Na8     Na   0.55376   0.56866   0.60775   1.000
    N19     N    0.79500   0.48419   0.58830   1.000
    N20     N    0.66921   0.52473   0.59303   1.000
    N21     N    0.92550   0.32296   0.60350   1.000
    N22     N    0.57140   0.69441   0.61120   1.000
    N23     N    0.96800   0.49017   0.68504   1.000
    N24     N    0.52630   0.52640   0.71417   1.000
    C76     C    0.78000   0.51950   0.64560   1.000
    H133    H    0.81360   0.55540   0.65140   1.000
    H134    H    0.78420   0.48840   0.67990   1.000
    C77     C    0.70790   0.54880   0.64480   1.000
    H135    H    0.68400   0.53670   0.68260   1.000
    H136    H    0.71090   0.59770   0.64300   1.000
    C78     C    0.77920   0.53020   0.53840   1.000
    H137    H    0.79160   0.50940   0.49940   1.000
    H138    H    0.80670   0.57100   0.54310   1.000
    C79     C    0.70330   0.54830   0.53780   1.000
    H139    H    0.69830   0.59690   0.53460   1.000
    H140    H    0.68130   0.52810   0.50190   1.000
    C80     C    0.74710   0.42810   0.58430   1.000
    H141    H    0.75820   0.39520   0.61580   1.000
    H142    H    0.75190   0.40650   0.54430   1.000
    C81     C    0.67250   0.45230   0.59260   1.000
    H143    H    0.64390   0.43500   0.55930   1.000
    H144    H    0.65410   0.43490   0.63120   1.000
    C82     C    0.99610   0.29820   0.60630   1.000
    H145    H    0.01970   0.31840   0.64120   1.000
    H146    H    0.02070   0.31110   0.56910   1.000
    C83     C    0.50280   0.72250   0.61270   1.000
    H147    H    0.47550   0.70330   0.57940   1.000
    H148    H    0.48070   0.71050   0.65140   1.000
    C84     C    0.89060   0.29990   0.65790   1.000
    H149    H    0.84320   0.31650   0.65780   1.000
    H150    H    0.91380   0.31800   0.69400   1.000
    C85     C    0.61000   0.72350   0.66150   1.000
    H151    H    0.58970   0.70930   0.70040   1.000
    H152    H    0.65760   0.70750   0.66020   1.000
    C86     C    0.89310   0.29230   0.55090   1.000
    H153    H    0.91650   0.30690   0.51360   1.000
    H154    H    0.84500   0.30670   0.54850   1.000
    C87     C    0.60400   0.71600   0.55520   1.000
    H155    H    0.65080   0.69790   0.55340   1.000
    H156    H    0.57830   0.69830   0.52020   1.000
    C88     C    0.97830   0.56230   0.68660   1.000
    H157    H    0.93380   0.58490   0.68210   1.000
    H158    H    0.00760   0.57580   0.65240   1.000
    C89     C    0.51180   0.58370   0.75320   1.000
    H159    H    0.55480   0.60750   0.76190   1.000
    H160    H    0.48100   0.61450   0.73160   1.000
    C90     C    0.92690   0.47230   0.73830   1.000
    H161    H    0.91870   0.42400   0.73830   1.000
    H162    H    0.88220   0.49480   0.73590   1.000
    C91     C    0.46210   0.49170   0.70330   1.000
    H163    H    0.43150   0.52060   0.67950   1.000
    H164    H    0.47120   0.45150   0.67910   1.000
    C92     C    0.03530   0.45900   0.69260   1.000
    H165    H    0.06450   0.47060   0.65770   1.000
    H166    H    0.02990   0.41030   0.69310   1.000
    C93     C    0.57040   0.48120   0.74880   1.000
    H167    H    0.58120   0.44190   0.72380   1.000
    H168    H    0.61370   0.50370   0.75880   1.000
    C94     C    0.47790   0.46270   0.52600   1.000
    C95     C    0.47710   0.51560   0.51830   1.000
    H169    H    0.44510   0.43460   0.56520   1.000
    C96     C    0.48030   0.59540   0.49280   1.000
    H170    H    0.48110   0.64070   0.48150   1.000
    C97     C    0.43530   0.57370   0.53710   1.000
    H171    H    0.40540   0.60430   0.55610   1.000
    C98     C    0.43410   0.50740   0.55370   1.000
    H172    H    0.40330   0.49270   0.58400   1.000
    H173    H    0.46460   0.59400   0.57140   1.000
    H174    H    0.40720   0.58660   0.52050   1.000
    H175    H    0.47710   0.41740   0.53730   1.000
    C99     C    0.52410   0.55070   0.46510   1.000
    C100    C    0.56450   0.43740   0.45030   1.000
    H176    H    0.59380   0.46060   0.42140   1.000
    Na9     Na   0.58127   0.94844   0.58677   1.000
    Na10    Na   0.94624   0.06866   0.60775   1.000
    N25     N    0.70500   0.98419   0.58830   1.000
    N26     N    0.83079   0.02473   0.59303   1.000
    N27     N    0.57450   0.82296   0.60350   1.000
    N28     N    0.92860   0.19441   0.61120   1.000
    N29     N    0.53200   0.99017   0.68504   1.000
    N30     N    0.97370   0.02640   0.71417   1.000
    C101    C    0.72000   0.01950   0.64560   1.000
    H177    H    0.68640   0.05540   0.65140   1.000
    H178    H    0.71580   0.98840   0.67990   1.000
    C102    C    0.79210   0.04880   0.64480   1.000
    H179    H    0.81600   0.03670   0.68260   1.000
    H180    H    0.78910   0.09770   0.64300   1.000
    C103    C    0.72080   0.03020   0.53840   1.000
    H181    H    0.70840   0.00940   0.49940   1.000
    H182    H    0.69330   0.07100   0.54310   1.000
    C104    C    0.79670   0.04830   0.53780   1.000
    H183    H    0.80170   0.09690   0.53460   1.000
    H184    H    0.81870   0.02810   0.50190   1.000
    C105    C    0.75290   0.92810   0.58430   1.000
    H185    H    0.74180   0.89520   0.61580   1.000
    H186    H    0.74810   0.90650   0.54430   1.000
    C106    C    0.82750   0.95230   0.59260   1.000
    H187    H    0.85610   0.93500   0.55930   1.000
    H188    H    0.84590   0.93490   0.63120   1.000
    C107    C    0.50390   0.79820   0.60630   1.000
    H189    H    0.48030   0.81840   0.64120   1.000
    H190    H    0.47930   0.81110   0.56910   1.000
    C108    C    0.99720   0.22250   0.61270   1.000
    H191    H    0.02450   0.20330   0.57940   1.000
    H192    H    0.01930   0.21050   0.65140   1.000
    C109    C    0.60940   0.79990   0.65790   1.000
    H193    H    0.65680   0.81650   0.65780   1.000
    H194    H    0.58620   0.81800   0.69400   1.000
    C110    C    0.89000   0.22350   0.66150   1.000
    H195    H    0.91030   0.20930   0.70040   1.000
    H196    H    0.84240   0.20750   0.66020   1.000
    C111    C    0.60690   0.79230   0.55090   1.000
    H197    H    0.58350   0.80690   0.51360   1.000
    H198    H    0.65500   0.80670   0.54850   1.000
    C112    C    0.89600   0.21600   0.55520   1.000
    H199    H    0.84920   0.19790   0.55340   1.000
    H200    H    0.92170   0.19830   0.52020   1.000
    C113    C    0.52170   0.06230   0.68660   1.000
    H201    H    0.56620   0.08490   0.68210   1.000
    H202    H    0.49240   0.07580   0.65240   1.000
    C114    C    0.98820   0.08370   0.75320   1.000
    H203    H    0.94520   0.10750   0.76190   1.000
    H204    H    0.01900   0.11450   0.73160   1.000
    C115    C    0.57310   0.97230   0.73830   1.000
    H205    H    0.58130   0.92400   0.73830   1.000
    H206    H    0.61780   0.99480   0.73590   1.000
    C116    C    0.03790   0.99170   0.70330   1.000
    H207    H    0.06850   0.02060   0.67950   1.000
    H208    H    0.02880   0.95150   0.67910   1.000
    C117    C    0.46470   0.95900   0.69260   1.000
    H209    H    0.43550   0.97060   0.65770   1.000
    H210    H    0.47010   0.91030   0.69310   1.000
    C118    C    0.92960   0.98120   0.74880   1.000
    H211    H    0.91880   0.94190   0.72380   1.000
    H212    H    0.88630   0.00370   0.75880   1.000
    C119    C    0.02210   0.96270   0.52600   1.000
    C120    C    0.02290   0.01560   0.51830   1.000
    H213    H    0.05490   0.93460   0.56520   1.000
    C121    C    0.01970   0.09540   0.49280   1.000
    H214    H    0.01890   0.14070   0.48150   1.000
    C122    C    0.06470   0.07370   0.53710   1.000
    H215    H    0.09460   0.10430   0.55610   1.000
    C123    C    0.06590   0.00740   0.55370   1.000
    H216    H    0.09670   0.99270   0.58400   1.000
    H217    H    0.03540   0.09400   0.57140   1.000
    H218    H    0.09280   0.08660   0.52050   1.000
    H219    H    0.02290   0.91740   0.53730   1.000
    C124    C    0.97590   0.05070   0.46510   1.000
    C125    C    0.93550   0.93740   0.45030   1.000
    H220    H    0.90620   0.96060   0.42140   1.000
    Na11    Na   0.91873   0.05156   0.08677   1.000
    Na12    Na   0.55376   0.93134   0.10775   1.000
    N31     N    0.79500   0.01581   0.08830   1.000
    N32     N    0.66921   0.97527   0.09303   1.000
    N33     N    0.92550   0.17704   0.10350   1.000
    N34     N    0.57140   0.80559   0.11120   1.000
    N35     N    0.96800   0.00983   0.18504   1.000
    N36     N    0.52630   0.97360   0.21417   1.000
    C126    C    0.78000   0.98050   0.14560   1.000
    H221    H    0.81360   0.94460   0.15140   1.000
    H222    H    0.78420   0.01160   0.17990   1.000
    C127    C    0.70790   0.95120   0.14480   1.000
    H223    H    0.68400   0.96330   0.18260   1.000
    H224    H    0.71090   0.90230   0.14300   1.000
    C128    C    0.77920   0.96980   0.03840   1.000
    H225    H    0.79160   0.99060   0.99940   1.000
    H226    H    0.80670   0.92900   0.04310   1.000
    C129    C    0.70330   0.95170   0.03780   1.000
    H227    H    0.69830   0.90310   0.03460   1.000
    H228    H    0.68130   0.97190   0.00190   1.000
    C130    C    0.74710   0.07190   0.08430   1.000
    H229    H    0.75820   0.10480   0.11580   1.000
    H230    H    0.75190   0.09350   0.04430   1.000
    C131    C    0.67250   0.04770   0.09260   1.000
    H231    H    0.64390   0.06500   0.05930   1.000
    H232    H    0.65410   0.06510   0.13120   1.000
    C132    C    0.99610   0.20180   0.10630   1.000
    H233    H    0.01970   0.18160   0.14120   1.000
    H234    H    0.02070   0.18890   0.06910   1.000
    C133    C    0.50280   0.77750   0.11270   1.000
    H235    H    0.47550   0.79670   0.07940   1.000
    H236    H    0.48070   0.78950   0.15140   1.000
    C134    C    0.89060   0.20010   0.15790   1.000
    H237    H    0.84320   0.18350   0.15780   1.000
    H238    H    0.91380   0.18200   0.19400   1.000
    C135    C    0.61000   0.77650   0.16150   1.000
    H239    H    0.58970   0.79070   0.20040   1.000
    H240    H    0.65760   0.79250   0.16020   1.000
    C136    C    0.89310   0.20770   0.05090   1.000
    H241    H    0.91650   0.19310   0.01360   1.000
    H242    H    0.84500   0.19330   0.04850   1.000
    C137    C    0.60400   0.78400   0.05520   1.000
    H243    H    0.65080   0.80210   0.05340   1.000
    H244    H    0.57830   0.80170   0.02020   1.000
    C138    C    0.97830   0.93770   0.18660   1.000
    H245    H    0.93380   0.91510   0.18210   1.000
    H246    H    0.00760   0.92420   0.15240   1.000
    C139    C    0.51180   0.91630   0.25320   1.000
    H247    H    0.55480   0.89250   0.26190   1.000
    H248    H    0.48100   0.88550   0.23160   1.000
    C140    C    0.92690   0.02770   0.23830   1.000
    H249    H    0.91870   0.07600   0.23830   1.000
    H250    H    0.88220   0.00520   0.23590   1.000
    C141    C    0.46210   0.00830   0.20330   1.000
    H251    H    0.43150   0.97940   0.17950   1.000
    H252    H    0.47120   0.04850   0.17910   1.000
    C142    C    0.03530   0.04100   0.19260   1.000
    H253    H    0.06450   0.02940   0.15770   1.000
    H254    H    0.02990   0.08970   0.19310   1.000
    C143    C    0.57040   0.01880   0.24880   1.000
    H255    H    0.58120   0.05810   0.22380   1.000
    H256    H    0.61370   0.99630   0.25880   1.000
    C144    C    0.47790   0.03730   0.02600   1.000
    C145    C    0.47710   0.98440   0.01830   1.000
    H257    H    0.44510   0.06540   0.06520   1.000
    C146    C    0.48030   0.90460   0.99280   1.000
    H258    H    0.48110   0.85930   0.98150   1.000
    C147    C    0.43530   0.92630   0.03710   1.000
    H259    H    0.40540   0.89570   0.05610   1.000
    C148    C    0.43410   0.99260   0.05370   1.000
    H260    H    0.40330   0.00730   0.08400   1.000
    H261    H    0.46460   0.90600   0.07140   1.000
    H262    H    0.40720   0.91340   0.02050   1.000
    H263    H    0.47710   0.08260   0.03730   1.000
    C149    C    0.52410   0.94930   0.96510   1.000
    C150    C    0.56450   0.06260   0.95030   1.000
    H264    H    0.59380   0.03940   0.92140   1.000
    Na13    Na   0.41873   0.44844   0.91323   1.000
    Na14    Na   0.05376   0.56866   0.89225   1.000
    N37     N    0.29500   0.48419   0.91170   1.000
    N38     N    0.16921   0.52473   0.90697   1.000
    N39     N    0.42550   0.32296   0.89650   1.000
    N40     N    0.07140   0.69441   0.88880   1.000
    N41     N    0.46800   0.49017   0.81496   1.000
    N42     N    0.02630   0.52640   0.78583   1.000
    C151    C    0.28000   0.51950   0.85440   1.000
    H265    H    0.31360   0.55540   0.84860   1.000
    H266    H    0.28420   0.48840   0.82010   1.000
    C152    C    0.20790   0.54880   0.85520   1.000
    H267    H    0.18400   0.53670   0.81740   1.000
    H268    H    0.21090   0.59770   0.85700   1.000
    C153    C    0.27920   0.53020   0.96160   1.000
    H269    H    0.29160   0.50940   0.00060   1.000
    H270    H    0.30670   0.57100   0.95690   1.000
    C154    C    0.20330   0.54830   0.96220   1.000
    H271    H    0.19830   0.59690   0.96540   1.000
    H272    H    0.18130   0.52810   0.99810   1.000
    C155    C    0.24710   0.42810   0.91570   1.000
    H273    H    0.25820   0.39520   0.88420   1.000
    H274    H    0.25190   0.40650   0.95570   1.000
    C156    C    0.17250   0.45230   0.90740   1.000
    H275    H    0.14390   0.43500   0.94070   1.000
    H276    H    0.15410   0.43490   0.86880   1.000
    C157    C    0.49610   0.29820   0.89370   1.000
    H277    H    0.51970   0.31840   0.85880   1.000
    H278    H    0.52070   0.31110   0.93090   1.000
    C158    C    0.00280   0.72250   0.88730   1.000
    H279    H    0.97550   0.70330   0.92060   1.000
    H280    H    0.98070   0.71050   0.84860   1.000
    C159    C    0.39060   0.29990   0.84210   1.000
    H281    H    0.34320   0.31650   0.84220   1.000
    H282    H    0.41380   0.31800   0.80600   1.000
    C160    C    0.11000   0.72350   0.83850   1.000
    H283    H    0.08970   0.70930   0.79960   1.000
    H284    H    0.15760   0.70750   0.83980   1.000
    C161    C    0.39310   0.29230   0.94910   1.000
    H285    H    0.41650   0.30690   0.98640   1.000
    H286    H    0.34500   0.30670   0.95150   1.000
    C162    C    0.10400   0.71600   0.94480   1.000
    H287    H    0.15080   0.69790   0.94660   1.000
    H288    H    0.07830   0.69830   0.97980   1.000
    C163    C    0.47830   0.56230   0.81340   1.000
    H289    H    0.43380   0.58490   0.81790   1.000
    H290    H    0.50760   0.57580   0.84760   1.000
    C164    C    0.01180   0.58370   0.74680   1.000
    H291    H    0.05480   0.60750   0.73810   1.000
    H292    H    0.98100   0.61450   0.76840   1.000
    C165    C    0.42690   0.47230   0.76170   1.000
    H293    H    0.41870   0.42400   0.76170   1.000
    H294    H    0.38220   0.49480   0.76410   1.000
    C166    C    0.96210   0.49170   0.79670   1.000
    H295    H    0.93150   0.52060   0.82050   1.000
    H296    H    0.97120   0.45150   0.82090   1.000
    C167    C    0.53530   0.45900   0.80740   1.000
    H297    H    0.56450   0.47060   0.84230   1.000
    H298    H    0.52990   0.41030   0.80690   1.000
    C168    C    0.07040   0.48120   0.75120   1.000
    H299    H    0.08120   0.44190   0.77620   1.000
    H300    H    0.11370   0.50370   0.74120   1.000
    C169    C    0.97790   0.46270   0.97400   1.000
    C170    C    0.97710   0.51560   0.98170   1.000
    H301    H    0.94510   0.43460   0.93480   1.000
    C171    C    0.98030   0.59540   0.00720   1.000
    H302    H    0.98110   0.64070   0.01850   1.000
    C172    C    0.93530   0.57370   0.96290   1.000
    H303    H    0.90540   0.60430   0.94390   1.000
    C173    C    0.93410   0.50740   0.94630   1.000
    H304    H    0.90330   0.49270   0.91600   1.000
    H305    H    0.96460   0.59400   0.92860   1.000
    H306    H    0.90720   0.58660   0.97950   1.000
    H307    H    0.97710   0.41740   0.96270   1.000
    C174    C    0.02410   0.55070   0.03490   1.000
    C175    C    0.06450   0.43740   0.04970   1.000
    H308    H    0.09380   0.46060   0.07860   1.000
    Na15    Na   0.08127   0.55156   0.41323   1.000
    Na16    Na   0.44624   0.43134   0.39225   1.000
    N43     N    0.20500   0.51581   0.41170   1.000
    N44     N    0.33079   0.47527   0.40697   1.000
    N45     N    0.07450   0.67704   0.39650   1.000
    N46     N    0.42860   0.30559   0.38880   1.000
    N47     N    0.03200   0.50983   0.31496   1.000
    N48     N    0.47370   0.47360   0.28583   1.000
    C176    C    0.22000   0.48050   0.35440   1.000
    H309    H    0.18640   0.44460   0.34860   1.000
    H310    H    0.21580   0.51160   0.32010   1.000
    C177    C    0.29210   0.45120   0.35520   1.000
    H311    H    0.31600   0.46330   0.31740   1.000
    H312    H    0.28910   0.40230   0.35700   1.000
    C178    C    0.22080   0.46980   0.46160   1.000
    H313    H    0.20840   0.49060   0.50060   1.000
    H314    H    0.19330   0.42900   0.45690   1.000
    C179    C    0.29670   0.45170   0.46220   1.000
    H315    H    0.30170   0.40310   0.46540   1.000
    H316    H    0.31870   0.47190   0.49810   1.000
    C180    C    0.25290   0.57190   0.41570   1.000
    H317    H    0.24180   0.60480   0.38420   1.000
    H318    H    0.24810   0.59350   0.45570   1.000
    C181    C    0.32750   0.54770   0.40740   1.000
    H319    H    0.35610   0.56500   0.44070   1.000
    H320    H    0.34590   0.56510   0.36880   1.000
    C182    C    0.00390   0.70180   0.39370   1.000
    H321    H    0.98030   0.68160   0.35880   1.000
    H322    H    0.97930   0.68890   0.43090   1.000
    C183    C    0.49720   0.27750   0.38730   1.000
    H323    H    0.52450   0.29670   0.42060   1.000
    H324    H    0.51930   0.28950   0.34860   1.000
    C184    C    0.10940   0.70010   0.34210   1.000
    H325    H    0.15680   0.68350   0.34220   1.000
    H326    H    0.08620   0.68200   0.30600   1.000
    C185    C    0.39000   0.27650   0.33850   1.000
    H327    H    0.41030   0.29070   0.29960   1.000
    H328    H    0.34240   0.29250   0.33980   1.000
    C186    C    0.10690   0.70770   0.44910   1.000
    H329    H    0.08350   0.69310   0.48640   1.000
    H330    H    0.15500   0.69330   0.45150   1.000
    C187    C    0.39600   0.28400   0.44480   1.000
    H331    H    0.34920   0.30210   0.44660   1.000
    H332    H    0.42170   0.30170   0.47980   1.000
    C188    C    0.02170   0.43770   0.31340   1.000
    H333    H    0.06620   0.41510   0.31790   1.000
    H334    H    0.99240   0.42420   0.34760   1.000
    C189    C    0.48820   0.41630   0.24680   1.000
    H335    H    0.44520   0.39250   0.23810   1.000
    H336    H    0.51900   0.38550   0.26840   1.000
    C190    C    0.07310   0.52770   0.26170   1.000
    H337    H    0.08130   0.57600   0.26170   1.000
    H338    H    0.11780   0.50520   0.26410   1.000
    C191    C    0.53790   0.50830   0.29670   1.000
    H339    H    0.56850   0.47940   0.32050   1.000
    H340    H    0.52880   0.54850   0.32090   1.000
    C192    C    0.96470   0.54100   0.30740   1.000
    H341    H    0.93550   0.52940   0.34230   1.000
    H342    H    0.97010   0.58970   0.30690   1.000
    C193    C    0.42960   0.51880   0.25120   1.000
    H343    H    0.41880   0.55810   0.27620   1.000
    H344    H    0.38630   0.49630   0.24120   1.000
    C194    C    0.52210   0.53730   0.47400   1.000
    C195    C    0.52290   0.48440   0.48170   1.000
    H345    H    0.55490   0.56540   0.43480   1.000
    C196    C    0.51970   0.40460   0.50720   1.000
    H346    H    0.51890   0.35930   0.51850   1.000
    C197    C    0.56470   0.42630   0.46290   1.000
    H347    H    0.59460   0.39570   0.44390   1.000
    C198    C    0.56590   0.49260   0.44630   1.000
    H348    H    0.59670   0.50730   0.41600   1.000
    H349    H    0.53540   0.40600   0.42860   1.000
    H350    H    0.59280   0.41340   0.47950   1.000
    H351    H    0.52290   0.58260   0.46270   1.000
    C199    C    0.47590   0.44930   0.53490   1.000
    C200    C    0.43550   0.56260   0.54970   1.000
    H352    H    0.40620   0.53940   0.57860   1.000
