data_functionalizedCrystal
_audit_creation_method	'EQeq! by Chris Wilmer'
_symmetry_space_group_name_H-M	'P1'
_symmetry_Int_Tables_number	1
_symmetry_cell_setting	triclinic
loop_
_symmetry_equiv_pos_as_xyz
  x,y,z
_cell_length_a	10.8851
_cell_length_b	11.8615
_cell_length_c	13.9326
_cell_angle_alpha	90
_cell_angle_beta	90
_cell_angle_gamma	90
loop_
_atom_site_label
_atom_site_type_symbol
_atom_site_fract_x
_atom_site_fract_y
_atom_site_fract_z
_atom_site_charge
Mof_N 	N 	0.6066	0.8729	0.4057	-0.136
Mof_O 	O 	0.9037	0.5819	0.3745	-0.341
Mof_O 	O 	0.8503	0.6413	0.5167	-0.354
Mof_C 	C 	0.616	0.896	0.3089	-0.044
Mof_H 	H 	0.5928	0.9695	0.2827	0.113
Mof_C 	C 	0.569	0.849	0.3157	0.074
Mof_H 	H 	0.4828	0.8573	0.296	0.028
Mof_C 	C 	0.7484	0.7351	0.286	0.029
Mof_H 	H 	0.7974	0.6914	0.2459	0.055
Mof_C 	C 	0.6621	0.8106	0.2502	-0.052
Mof_H 	H 	0.6465	0.8134	0.1809	0.082
Mof_C 	C 	0.685	0.7992	0.4393	0.088
Mof_H 	H 	0.6932	0.7934	0.5055	0.036
Mof_C 	C 	0.842	0.6463	0.4279	0.327
Mof_C 	C 	0.7567	0.7292	0.3828	-0.078
Mof_N 	N 	0.3934	0.1271	0.4057	-0.196
Mof_O 	O 	0.0963	0.4181	0.3745	-0.515
Mof_O 	O 	0.1497	0.3587	0.5167	-0.466
Mof_C 	C 	0.384	0.104	0.3089	0.101
Mof_H 	H 	0.4072	0.0305	0.2827	-0.06
Mof_C 	C 	0.431	0.151	0.3157	-0.053
Mof_H 	H 	0.5172	0.1427	0.296	0.031
Mof_C 	C 	0.2516	0.2649	0.286	0.058
Mof_H 	H 	0.2026	0.3086	0.2459	0.001
Mof_C 	C 	0.3379	0.1894	0.2502	-0.136
Mof_H 	H 	0.3535	0.1866	0.1809	0.074
Mof_C 	C 	0.315	0.2008	0.4393	0.084
Mof_H 	H 	0.3068	0.2066	0.5055	-0.011
Mof_C 	C 	0.158	0.3537	0.4279	0.346
Mof_C 	C 	0.2433	0.2708	0.3828	-0.16
Mof_N 	N 	0.3934	0.8729	0.5943	-0.146
Mof_O 	O 	0.0963	0.5819	0.6255	-0.511
Mof_O 	O 	0.1497	0.6413	0.4833	-0.454
Mof_C 	C 	0.384	0.896	0.6911	0.036
Mof_H 	H 	0.4072	0.9695	0.7173	0.077
Mof_C 	C 	0.431	0.849	0.6843	-0.005
Mof_H 	H 	0.5172	0.8573	0.704	0.059
Mof_C 	C 	0.2516	0.7351	0.714	0.049
Mof_H 	H 	0.2026	0.6914	0.7541	0.018
Mof_C 	C 	0.3379	0.8106	0.7498	-0.087
Mof_H 	H 	0.3535	0.8134	0.8191	0.083
Mof_C 	C 	0.315	0.7992	0.5607	0.091
Mof_H 	H 	0.3068	0.7934	0.4945	0.015
Mof_C 	C 	0.158	0.6463	0.5721	0.348
Mof_C 	C 	0.2433	0.7292	0.6172	-0.136
Mof_N 	N 	0.6066	0.1271	0.5943	-0.184
Mof_O 	O 	0.9037	0.4181	0.6255	-0.342
Mof_O 	O 	0.8503	0.3587	0.4833	-0.364
Mof_C 	C 	0.616	0.104	0.6911	0.022
Mof_H 	H 	0.5928	0.0305	0.7173	-0.017
Mof_C 	C 	0.569	0.151	0.6843	0.022
Mof_H 	H 	0.4828	0.1427	0.704	0.009
Mof_C 	C 	0.7484	0.2649	0.714	0.036
Mof_H 	H 	0.7974	0.3086	0.7541	0.048
Mof_C 	C 	0.6621	0.1894	0.7498	-0.09
Mof_H 	H 	0.6465	0.1866	0.8191	0.077
Mof_C 	C 	0.685	0.2008	0.5607	0.081
Mof_H 	H 	0.6932	0.2066	0.4945	0.01
Mof_C 	C 	0.842	0.3537	0.5721	0.324
Mof_C 	C 	0.7567	0.2708	0.6172	-0.098
Mof_Ag	Ag	0.5	0	0.5	0.395
Mof_In	In	2.39956e-33	0.5	0.5	1.725
Mof_N 	N 	0.1066	0.3729	0.9057	-0.168
Mof_O 	O 	0.4037	0.0819	0.8745	-0.512
Mof_O 	O 	0.3503	0.1413	0.0167	-0.535
Mof_C 	C 	0.116	0.396	0.8089	-1.159
Mof_H 	H 	0.0928	0.4695	0.7827	0.346
Mof_C 	C 	0.069	0.349	0.8157	0.944
Mof_H 	H 	0.9828	0.3573	0.796	-0.097
Mof_C 	C 	0.2484	0.2351	0.786	-0.022
Mof_H 	H 	0.2974	0.1914	0.7459	0.027
Mof_C 	C 	0.1621	0.3106	0.7502	0.033
Mof_H 	H 	0.1465	0.3134	0.6809	-0.007
Mof_C 	C 	0.185	0.2992	0.9393	0.188
Mof_H 	H 	0.1932	0.2934	0.0055	-0.08
Mof_C 	C 	0.342	0.1463	0.9279	0.433
Mof_C 	C 	0.2567	0.2292	0.8828	-0.173
Mof_N 	N 	0.8934	0.6271	0.9057	-0.144
Mof_O 	O 	0.5963	0.9181	0.8745	-0.395
Mof_O 	O 	0.6497	0.8587	0.0167	-0.445
Mof_C 	C 	0.884	0.604	0.8089	1.198
Mof_H 	H 	0.9072	0.5305	0.7827	-0.265
Mof_C 	C 	0.931	0.651	0.8157	-0.876
Mof_H 	H 	0.0172	0.6427	0.796	0.163
Mof_C 	C 	0.7516	0.7649	0.786	0.222
Mof_H 	H 	0.7026	0.8086	0.7459	-0.009
Mof_C 	C 	0.8379	0.6894	0.7502	-0.275
Mof_H 	H 	0.8535	0.6866	0.6809	0.183
Mof_C 	C 	0.815	0.7008	0.9393	0.289
Mof_H 	H 	0.8068	0.7066	0.0055	-0.062
Mof_C 	C 	0.658	0.8537	0.9279	0.457
Mof_C 	C 	0.7433	0.7708	0.8828	-0.223
Mof_N 	N 	0.8934	0.3729	0.0943	-0.112
Mof_O 	O 	0.5963	0.0819	0.1255	-0.477
Mof_O 	O 	0.6497	0.1413	0.9833	-0.365
Mof_C 	C 	0.884	0.396	0.1911	1.142
Mof_H 	H 	0.9072	0.4695	0.2173	-0.252
Mof_C 	C 	0.931	0.349	0.1843	-0.857
Mof_H 	H 	0.0172	0.3573	0.204	0.145
Mof_C 	C 	0.7516	0.2351	0.214	0.112
Mof_H 	H 	0.7026	0.1914	0.2541	-0.003
Mof_C 	C 	0.8379	0.3106	0.2498	-0.228
Mof_H 	H 	0.8535	0.3134	0.3191	0.155
Mof_C 	C 	0.815	0.2992	0.0607	-0.021
Mof_H 	H 	0.8068	0.2934	0.9945	0.113
Mof_C 	C 	0.658	0.1463	0.0721	0.258
Mof_C 	C 	0.7433	0.2292	0.1172	-0.095
Mof_N 	N 	0.1066	0.6271	0.0943	-0.124
Mof_O 	O 	0.4037	0.9181	0.1255	-0.355
Mof_O 	O 	0.3503	0.8587	0.9833	-0.316
Mof_C 	C 	0.116	0.604	0.1911	-1.102
Mof_H 	H 	0.0928	0.5305	0.2173	0.324
Mof_C 	C 	0.069	0.651	0.1843	0.851
Mof_H 	H 	0.9828	0.6427	0.204	-0.065
Mof_C 	C 	0.2484	0.7649	0.214	-0.148
Mof_H 	H 	0.2974	0.8086	0.2541	0.103
Mof_C 	C 	0.1621	0.6894	0.2498	0.116
Mof_H 	H 	0.1465	0.6866	0.3191	-0.02
Mof_C 	C 	0.185	0.7008	0.0607	-0.131
Mof_H 	H 	0.1932	0.7066	0.9945	0.122
Mof_C 	C 	0.342	0.8537	0.0721	0.197
Mof_C 	C 	0.2567	0.7708	0.1172	0.036
Mof_Ag	Ag	-0	0.5	-0	0.159
Mof_In	In	0.5	0	-0	1.786
_end
