data_functionalizedCrystal
_audit_creation_method	'EQeq! by Chris Wilmer'
_symmetry_space_group_name_H-M	'P1'
_symmetry_Int_Tables_number	1
_symmetry_cell_setting	triclinic
loop_
_symmetry_equiv_pos_as_xyz
  x,y,z
_cell_length_a	9.184
_cell_length_b	9.184
_cell_length_c	17.813
_cell_angle_alpha	90
_cell_angle_beta	90
_cell_angle_gamma	120
loop_
_atom_site_label
_atom_site_type_symbol
_atom_site_fract_x
_atom_site_fract_y
_atom_site_fract_z
_atom_site_charge
Mof_La	La	0.66667	0.33334	0.25	2.09
Mof_La	La	0.33333	0.66666	0.75	2.093
Mof_Y 	Y 	-0	0	-0	1.203
Mof_Y 	Y 	1.94008e-32	1.94008e-32	0.5	1.249
Mof_H 	H 	0.4257	0.4006	0.082	0.108
Mof_H 	H 	0.4897	0.3227	0.0237	0.107
Mof_H 	H 	0.9749	0.5743	0.082	0.098
Mof_H 	H 	0.833	0.5103	0.0237	0.074
Mof_H 	H 	0.5994	0.0251	0.082	0.061
Mof_H 	H 	0.6773	0.167	0.0237	0.081
Mof_H 	H 	0.4257	0.4006	0.418	0.118
Mof_H 	H 	0.4897	0.3227	0.4763	0.12
Mof_H 	H 	0.9749	0.5743	0.418	0.108
Mof_H 	H 	0.833	0.5103	0.4763	0.087
Mof_H 	H 	0.5994	0.0251	0.418	0.07
Mof_H 	H 	0.6773	0.167	0.4763	0.093
Mof_H 	H 	0.0251	0.5994	0.918	0.059
Mof_H 	H 	0.167	0.6773	0.9763	0.086
Mof_H 	H 	0.4006	0.4257	0.918	0.11
Mof_H 	H 	0.3227	0.4897	0.9763	0.115
Mof_H 	H 	0.5743	0.9749	0.918	0.102
Mof_H 	H 	0.5103	0.833	0.9763	0.086
Mof_H 	H 	0.0251	0.5994	0.582	0.068
Mof_H 	H 	0.167	0.6773	0.5237	0.09
Mof_H 	H 	0.4006	0.4257	0.582	0.119
Mof_H 	H 	0.3227	0.4897	0.5237	0.119
Mof_H 	H 	0.5743	0.9749	0.582	0.11
Mof_H 	H 	0.5103	0.833	0.5237	0.089
Mof_C 	C 	0.3402	0.1531	0.1046	0.487
Mof_C 	C 	0.3959	0.3045	0.0524	-0.287
Mof_C 	C 	0.8129	0.6598	0.1046	0.447
Mof_C 	C 	0.9086	0.6041	0.0524	-0.118
Mof_C 	C 	0.8469	0.1871	0.1046	0.453
Mof_C 	C 	0.6955	0.0914	0.0524	-0.21
Mof_C 	C 	0.3402	0.1531	0.3954	0.496
Mof_C 	C 	0.3959	0.3045	0.4476	-0.308
Mof_C 	C 	0.8129	0.6598	0.3954	0.456
Mof_C 	C 	0.9086	0.6041	0.4476	-0.14
Mof_C 	C 	0.8469	0.1871	0.3954	0.461
Mof_C 	C 	0.6955	0.0914	0.4476	-0.23
Mof_C 	C 	0.1871	0.8469	0.8954	0.448
Mof_C 	C 	0.0914	0.6955	0.9476	-0.176
Mof_C 	C 	0.1531	0.3402	0.8954	0.484
Mof_C 	C 	0.3045	0.3959	0.9476	-0.258
Mof_C 	C 	0.6598	0.8129	0.8954	0.447
Mof_C 	C 	0.6041	0.9086	0.9476	-0.106
Mof_C 	C 	0.1871	0.8469	0.6046	0.46
Mof_C 	C 	0.0914	0.6955	0.5524	-0.225
Mof_C 	C 	0.1531	0.3402	0.6046	0.497
Mof_C 	C 	0.3045	0.3959	0.5524	-0.308
Mof_C 	C 	0.6598	0.8129	0.6046	0.458
Mof_C 	C 	0.6041	0.9086	0.5524	-0.151
Mof_O 	O 	0.2009	0.0281	0.0915	-0.468
Mof_O 	O 	0.4379	0.171	0.156	-0.549
Mof_O 	O 	0.8272	0.7991	0.0915	-0.312
Mof_O 	O 	0.7331	0.5621	0.156	-0.499
Mof_O 	O 	0.9719	0.1728	0.0915	-0.34
Mof_O 	O 	0.829	0.2669	0.156	-0.503
Mof_O 	O 	0.2009	0.0281	0.4085	-0.472
Mof_O 	O 	0.4379	0.171	0.344	-0.551
Mof_O 	O 	0.8272	0.7991	0.4085	-0.316
Mof_O 	O 	0.7331	0.5621	0.344	-0.501
Mof_O 	O 	0.9719	0.1728	0.4085	-0.344
Mof_O 	O 	0.829	0.2669	0.344	-0.505
Mof_O 	O 	0.1728	0.9719	0.9085	-0.328
Mof_O 	O 	0.2669	0.829	0.844	-0.501
Mof_O 	O 	0.0281	0.2009	0.9085	-0.45
Mof_O 	O 	0.171	0.4379	0.844	-0.545
Mof_O 	O 	0.7991	0.8272	0.9085	-0.296
Mof_O 	O 	0.5621	0.7331	0.844	-0.496
Mof_O 	O 	0.1728	0.9719	0.5915	-0.348
Mof_O 	O 	0.2669	0.829	0.656	-0.506
Mof_O 	O 	0.0281	0.2009	0.5915	-0.472
Mof_O 	O 	0.171	0.4379	0.656	-0.551
Mof_O 	O 	0.7991	0.8272	0.5915	-0.315
Mof_O 	O 	0.5621	0.7331	0.656	-0.501
Mof_O 	O 	0.2663	0.2663	-0	-0.194
Mof_O 	O 	4.36866e-17	0.7337	-0	-0.262
Mof_O 	O 	0.7337	0	-0	-0.25
Mof_O 	O 	0.2663	0.2663	0.5	-0.163
Mof_O 	O 	1.22956e-17	0.7337	0.5	-0.231
Mof_O 	O 	0.7337	1.94008e-32	0.5	-0.221
_end
