data_functionalizedCrystal
_audit_creation_method	'EQeq! by Chris Wilmer'
_symmetry_space_group_name_H-M	'P1'
_symmetry_Int_Tables_number	1
_symmetry_cell_setting	triclinic
loop_
_symmetry_equiv_pos_as_xyz
  x,y,z
_cell_length_a	33.175
_cell_length_b	33.175
_cell_length_c	33.175
_cell_angle_alpha	90
_cell_angle_beta	90
_cell_angle_gamma	90
loop_
_atom_site_label
_atom_site_type_symbol
_atom_site_fract_x
_atom_site_fract_y
_atom_site_fract_z
_atom_site_charge
Mof_C 	C 	0.21666	0.18715	0.24634	-0.108
Mof_C 	C 	0.18732	0.21697	0.24666	0.092
Mof_H 	H 	0.1688	0.2169	0.2687	-0.113
Mof_C 	C 	0.2506	0.0433	0.4389	0.123
Mof_C 	C 	0.2505	0.0695	0.4	-0.025
Mof_C 	C 	0.2878	0.0814	0.3827	0.017
Mof_H 	H 	0.3127	0.0723	0.3942	0.027
Mof_C 	C 	0.2883	0.1066	0.3502	-0.124
Mof_H 	H 	0.313	0.1157	0.3398	0.068
Mof_C 	C 	0.252	0.1195	0.3318	0.109
Mof_C 	C 	0.2505	0.145	0.2984	-0.215
Mof_H 	H 	0.2752	0.1529	0.2868	0.169
Mof_C 	C 	0.2161	0.1582	0.2814	0.119
Mof_C 	C 	0.1783	0.144	0.2986	-0.094
Mof_H 	H 	0.1533	0.1519	0.2865	0.046
Mof_C 	C 	0.1779	0.1192	0.3296	-0.016
Mof_H 	H 	0.1529	0.1108	0.3402	0.029
Mof_C 	C 	0.2139	0.1057	0.3481	-0.022
Mof_C 	C 	0.2149	0.0803	0.3824	-0.035
Mof_H 	H 	0.1899	0.0713	0.3939	0.047
Mof_O 	O 	0.2166	0.0334	0.4516	-0.197
Mof_O 	O 	0.2848	0.034	0.4521	-0.187
Mof_C 	C 	0.2491	0.0613	0.456	0.16
Mof_C 	C 	0.2495	0.1001	0.4304	-0.009
Mof_C 	C 	0.2127	0.1175	0.4175	-0.008
Mof_H 	H 	0.1877	0.1065	0.427	0.037
Mof_C 	C 	0.2122	0.1492	0.3934	-0.073
Mof_H 	H 	0.1875	0.1591	0.3838	0.05
Mof_C 	C 	0.2483	0.1683	0.3807	0.043
Mof_C 	C 	0.2493	0.2018	0.3546	-0.09
Mof_H 	H 	0.2246	0.2126	0.346	-0.044
Mof_C 	C 	0.2834	0.2179	0.342	0.184
Mof_C 	C 	0.3217	0.2012	0.3566	-0.115
Mof_H 	H 	0.347	0.2131	0.349	0.046
Mof_C 	C 	0.3214	0.1703	0.3813	-0.02
Mof_H 	H 	0.3462	0.1599	0.3901	0.034
Mof_C 	C 	0.2864	0.1516	0.3944	0.006
Mof_C 	C 	0.2849	0.1176	0.4192	-0.054
Mof_H 	H 	0.3099	0.1061	0.4281	0.055
Mof_O 	O 	0.2156	0.0478	0.4656	-0.202
Mof_O 	O 	0.2832	0.0483	0.466	-0.208
Mof_C 	C 	0.71666	0.68715	0.74634	-0.106
Mof_C 	C 	0.68732	0.71697	0.74666	0.094
Mof_H 	H 	0.6688	0.7169	0.7687	-0.112
Mof_C 	C 	0.7506	0.5433	0.9389	0.124
Mof_C 	C 	0.7505	0.5695	0.9	-0.02
Mof_C 	C 	0.7878	0.5814	0.8827	0.017
Mof_H 	H 	0.8127	0.5723	0.8942	0.032
Mof_C 	C 	0.7883	0.6066	0.8502	-0.12
Mof_H 	H 	0.813	0.6157	0.8398	0.069
Mof_C 	C 	0.752	0.6195	0.8318	0.108
Mof_C 	C 	0.7505	0.645	0.7984	-0.214
Mof_H 	H 	0.7752	0.6529	0.7868	0.168
Mof_C 	C 	0.7161	0.6582	0.7814	0.119
Mof_C 	C 	0.6783	0.644	0.7986	-0.092
Mof_H 	H 	0.6533	0.6519	0.7865	0.046
Mof_C 	C 	0.6779	0.6192	0.8296	-0.017
Mof_H 	H 	0.6529	0.6108	0.8402	0.034
Mof_C 	C 	0.7139	0.6057	0.8481	-0.018
Mof_C 	C 	0.7149	0.5803	0.8824	-0.036
Mof_H 	H 	0.6899	0.5713	0.8939	0.051
Mof_O 	O 	0.7166	0.5334	0.9516	-0.189
Mof_O 	O 	0.7848	0.534	0.9521	-0.178
Mof_C 	C 	0.7491	0.5613	0.956	0.16
Mof_C 	C 	0.7495	0.6001	0.9304	-0.004
Mof_C 	C 	0.7127	0.6175	0.9175	-0.011
Mof_H 	H 	0.6877	0.6065	0.927	0.042
Mof_C 	C 	0.7122	0.6492	0.8934	-0.068
Mof_H 	H 	0.6875	0.6591	0.8838	0.05
Mof_C 	C 	0.7483	0.6683	0.8807	0.042
Mof_C 	C 	0.7493	0.7018	0.8546	-0.089
Mof_H 	H 	0.7246	0.7126	0.846	-0.044
Mof_C 	C 	0.7834	0.7179	0.842	0.185
Mof_C 	C 	0.8217	0.7012	0.8566	-0.112
Mof_H 	H 	0.847	0.7131	0.849	0.046
Mof_C 	C 	0.8214	0.6703	0.8813	-0.022
Mof_H 	H 	0.8462	0.6599	0.8901	0.038
Mof_C 	C 	0.7864	0.6516	0.8944	0.011
Mof_C 	C 	0.7849	0.6176	0.9192	-0.056
Mof_H 	H 	0.8099	0.6061	0.9281	0.06
Mof_O 	O 	0.7156	0.5478	0.9656	-0.193
Mof_O 	O 	0.7832	0.5483	0.966	-0.201
Mof_C 	C 	0.78334	0.81285	0.24634	-0.104
Mof_C 	C 	0.81268	0.78303	0.24666	0.093
Mof_H 	H 	0.8312	0.7831	0.2687	-0.11
Mof_C 	C 	0.7494	0.9567	0.4389	0.142
Mof_C 	C 	0.7495	0.9305	0.4	-0.025
Mof_C 	C 	0.7122	0.9186	0.3827	0.023
Mof_H 	H 	0.6873	0.9277	0.3942	0.031
Mof_C 	C 	0.7117	0.8934	0.3502	-0.121
Mof_H 	H 	0.687	0.8843	0.3398	0.07
Mof_C 	C 	0.748	0.8805	0.3318	0.11
Mof_C 	C 	0.7495	0.855	0.2984	-0.211
Mof_H 	H 	0.7248	0.8471	0.2868	0.166
Mof_C 	C 	0.7839	0.8418	0.2814	0.119
Mof_C 	C 	0.8217	0.856	0.2986	-0.091
Mof_H 	H 	0.8467	0.8481	0.2865	0.047
Mof_C 	C 	0.8221	0.8808	0.3296	-0.015
Mof_H 	H 	0.8471	0.8892	0.3402	0.036
Mof_C 	C 	0.7861	0.8943	0.3481	-0.018
Mof_C 	C 	0.7851	0.9197	0.3824	-0.03
Mof_H 	H 	0.8101	0.9287	0.3939	0.052
Mof_O 	O 	0.7834	0.9666	0.4516	-0.182
Mof_O 	O 	0.7152	0.966	0.4521	-0.171
Mof_C 	C 	0.7509	0.9387	0.456	0.142
Mof_C 	C 	0.7505	0.8999	0.4304	0.001
Mof_C 	C 	0.7873	0.8825	0.4175	-0.018
Mof_H 	H 	0.8123	0.8935	0.427	0.044
Mof_C 	C 	0.7878	0.8508	0.3934	-0.066
Mof_H 	H 	0.8125	0.8409	0.3838	0.048
Mof_C 	C 	0.7517	0.8317	0.3807	0.039
Mof_C 	C 	0.7507	0.7982	0.3546	-0.088
Mof_H 	H 	0.7754	0.7874	0.346	-0.047
Mof_C 	C 	0.7166	0.7821	0.342	0.187
Mof_C 	C 	0.6783	0.7988	0.3566	-0.115
Mof_H 	H 	0.653	0.7869	0.349	0.046
Mof_C 	C 	0.6786	0.8297	0.3813	-0.023
Mof_H 	H 	0.6538	0.8401	0.3901	0.036
Mof_C 	C 	0.7136	0.8484	0.3944	0.011
Mof_C 	C 	0.7151	0.8824	0.4192	-0.062
Mof_H 	H 	0.6901	0.8939	0.4281	0.06
Mof_O 	O 	0.7844	0.9522	0.4656	-0.199
Mof_O 	O 	0.7168	0.9517	0.466	-0.208
Mof_C 	C 	0.28334	0.31285	0.74634	-0.105
Mof_C 	C 	0.31268	0.28303	0.74666	0.092
Mof_H 	H 	0.3312	0.2831	0.7687	-0.11
Mof_C 	C 	0.2494	0.4567	0.9389	0.124
Mof_C 	C 	0.2495	0.4305	0.9	-0.021
Mof_C 	C 	0.2122	0.4186	0.8827	0.018
Mof_H 	H 	0.1873	0.4277	0.8942	0.03
Mof_C 	C 	0.2117	0.3934	0.8502	-0.121
Mof_H 	H 	0.187	0.3843	0.8398	0.069
Mof_C 	C 	0.248	0.3805	0.8318	0.11
Mof_C 	C 	0.2495	0.355	0.7984	-0.217
Mof_H 	H 	0.2248	0.3471	0.7868	0.172
Mof_C 	C 	0.2839	0.3418	0.7814	0.12
Mof_C 	C 	0.3217	0.356	0.7986	-0.093
Mof_H 	H 	0.3467	0.3481	0.7865	0.046
Mof_C 	C 	0.3221	0.3808	0.8296	-0.016
Mof_H 	H 	0.3471	0.3892	0.8402	0.033
Mof_C 	C 	0.2861	0.3943	0.8481	-0.019
Mof_C 	C 	0.2851	0.4197	0.8824	-0.035
Mof_H 	H 	0.3101	0.4287	0.8939	0.051
Mof_O 	O 	0.2834	0.4666	0.9516	-0.189
Mof_O 	O 	0.2152	0.466	0.9521	-0.178
Mof_C 	C 	0.2509	0.4387	0.956	0.16
Mof_C 	C 	0.2505	0.3999	0.9304	-0.005
Mof_C 	C 	0.2873	0.3825	0.9175	-0.011
Mof_H 	H 	0.3123	0.3935	0.927	0.042
Mof_C 	C 	0.2878	0.3508	0.8934	-0.069
Mof_H 	H 	0.3125	0.3409	0.8838	0.05
Mof_C 	C 	0.2517	0.3317	0.8807	0.042
Mof_C 	C 	0.2507	0.2982	0.8546	-0.089
Mof_H 	H 	0.2754	0.2874	0.846	-0.043
Mof_C 	C 	0.2166	0.2821	0.842	0.184
Mof_C 	C 	0.1783	0.2988	0.8566	-0.114
Mof_H 	H 	0.153	0.2869	0.849	0.046
Mof_C 	C 	0.1786	0.3297	0.8813	-0.021
Mof_H 	H 	0.1538	0.3401	0.8901	0.035
Mof_C 	C 	0.2136	0.3484	0.8944	0.009
Mof_C 	C 	0.2151	0.3824	0.9192	-0.056
Mof_H 	H 	0.1901	0.3939	0.9281	0.058
Mof_O 	O 	0.2844	0.4522	0.9656	-0.193
Mof_O 	O 	0.2168	0.4517	0.966	-0.202
Mof_C 	C 	0.78334	0.18715	0.75366	-0.105
Mof_C 	C 	0.81268	0.21697	0.75334	0.093
Mof_H 	H 	0.8312	0.2169	0.7313	-0.11
Mof_C 	C 	0.7494	0.0433	0.5611	0.124
Mof_C 	C 	0.7495	0.0695	0.6	-0.023
Mof_C 	C 	0.7122	0.0814	0.6173	0.018
Mof_H 	H 	0.6873	0.0723	0.6058	0.028
Mof_C 	C 	0.7117	0.1066	0.6498	-0.122
Mof_H 	H 	0.687	0.1157	0.6602	0.069
Mof_C 	C 	0.748	0.1195	0.6682	0.109
Mof_C 	C 	0.7495	0.145	0.7016	-0.215
Mof_H 	H 	0.7248	0.1529	0.7132	0.169
Mof_C 	C 	0.7839	0.1582	0.7186	0.12
Mof_C 	C 	0.8217	0.144	0.7014	-0.093
Mof_H 	H 	0.8467	0.1519	0.7135	0.046
Mof_C 	C 	0.8221	0.1192	0.6704	-0.016
Mof_H 	H 	0.8471	0.1108	0.6598	0.033
Mof_C 	C 	0.7861	0.1057	0.6519	-0.02
Mof_C 	C 	0.7851	0.0803	0.6176	-0.035
Mof_H 	H 	0.8101	0.0713	0.6061	0.049
Mof_O 	O 	0.7834	0.0334	0.5484	-0.196
Mof_O 	O 	0.7152	0.034	0.5479	-0.187
Mof_C 	C 	0.7509	0.0613	0.544	0.16
Mof_C 	C 	0.7505	0.1001	0.5696	-0.009
Mof_C 	C 	0.7873	0.1175	0.5825	-0.009
Mof_H 	H 	0.8123	0.1065	0.573	0.039
Mof_C 	C 	0.7878	0.1492	0.6066	-0.072
Mof_H 	H 	0.8125	0.1591	0.6162	0.05
Mof_C 	C 	0.7517	0.1683	0.6193	0.042
Mof_C 	C 	0.7507	0.2018	0.6454	-0.088
Mof_H 	H 	0.7754	0.2126	0.654	-0.048
Mof_C 	C 	0.7166	0.2179	0.658	0.186
Mof_C 	C 	0.6783	0.2012	0.6434	-0.116
Mof_H 	H 	0.653	0.2131	0.651	0.046
Mof_C 	C 	0.6786	0.1703	0.6187	-0.02
Mof_H 	H 	0.6538	0.1599	0.6099	0.034
Mof_C 	C 	0.7136	0.1516	0.6056	0.006
Mof_C 	C 	0.7151	0.1176	0.5808	-0.054
Mof_H 	H 	0.6901	0.1061	0.5719	0.055
Mof_O 	O 	0.7844	0.0478	0.5344	-0.201
Mof_O 	O 	0.7168	0.0483	0.534	-0.208
Mof_C 	C 	0.28334	0.68715	0.25366	-0.104
Mof_C 	C 	0.31268	0.71697	0.25334	0.094
Mof_H 	H 	0.3312	0.7169	0.2313	-0.112
Mof_C 	C 	0.2494	0.5433	0.0611	0.141
Mof_C 	C 	0.2495	0.5695	0.1	-0.028
Mof_C 	C 	0.2122	0.5814	0.1173	0.023
Mof_H 	H 	0.1873	0.5723	0.1058	0.026
Mof_C 	C 	0.2117	0.6066	0.1498	-0.124
Mof_H 	H 	0.187	0.6157	0.1602	0.07
Mof_C 	C 	0.248	0.6195	0.1682	0.11
Mof_C 	C 	0.2495	0.645	0.2016	-0.212
Mof_H 	H 	0.2248	0.6529	0.2132	0.165
Mof_C 	C 	0.2839	0.6582	0.2186	0.119
Mof_C 	C 	0.3217	0.644	0.2014	-0.093
Mof_H 	H 	0.3467	0.6519	0.2135	0.046
Mof_C 	C 	0.3221	0.6192	0.1704	-0.015
Mof_H 	H 	0.3471	0.6108	0.1598	0.032
Mof_C 	C 	0.2861	0.6057	0.1519	-0.021
Mof_C 	C 	0.2851	0.5803	0.1176	-0.029
Mof_H 	H 	0.3101	0.5713	0.1061	0.048
Mof_O 	O 	0.2834	0.5334	0.0484	-0.19
Mof_O 	O 	0.2152	0.534	0.0479	-0.181
Mof_C 	C 	0.2509	0.5613	0.044	0.142
Mof_C 	C 	0.2505	0.6001	0.0696	-0.004
Mof_C 	C 	0.2873	0.6175	0.0825	-0.015
Mof_H 	H 	0.3123	0.6065	0.073	0.039
Mof_C 	C 	0.2878	0.6492	0.1066	-0.07
Mof_H 	H 	0.3125	0.6591	0.1162	0.049
Mof_C 	C 	0.2517	0.6683	0.1193	0.04
Mof_C 	C 	0.2507	0.7018	0.1454	-0.089
Mof_H 	H 	0.2754	0.7126	0.154	-0.047
Mof_C 	C 	0.2166	0.7179	0.158	0.186
Mof_C 	C 	0.1783	0.7012	0.1434	-0.117
Mof_H 	H 	0.153	0.7131	0.151	0.046
Mof_C 	C 	0.1786	0.6703	0.1187	-0.021
Mof_H 	H 	0.1538	0.6599	0.1099	0.032
Mof_C 	C 	0.2136	0.6516	0.1056	0.007
Mof_C 	C 	0.2151	0.6176	0.0808	-0.06
Mof_H 	H 	0.1901	0.6061	0.0719	0.055
Mof_O 	O 	0.2844	0.5478	0.0344	-0.207
Mof_O 	O 	0.2168	0.5483	0.034	-0.216
Mof_C 	C 	0.21666	0.81285	0.75366	-0.104
Mof_C 	C 	0.18732	0.78303	0.75334	0.093
Mof_H 	H 	0.1688	0.7831	0.7313	-0.112
Mof_C 	C 	0.2506	0.9567	0.5611	0.142
Mof_C 	C 	0.2505	0.9305	0.6	-0.025
Mof_C 	C 	0.2878	0.9186	0.6173	0.023
Mof_H 	H 	0.3127	0.9277	0.6058	0.031
Mof_C 	C 	0.2883	0.8934	0.6498	-0.121
Mof_H 	H 	0.313	0.8843	0.6602	0.07
Mof_C 	C 	0.252	0.8805	0.6682	0.109
Mof_C 	C 	0.2505	0.855	0.7016	-0.211
Mof_H 	H 	0.2752	0.8471	0.7132	0.165
Mof_C 	C 	0.2161	0.8418	0.7186	0.119
Mof_C 	C 	0.1783	0.856	0.7014	-0.091
Mof_H 	H 	0.1533	0.8481	0.7135	0.046
Mof_C 	C 	0.1779	0.8808	0.6704	-0.015
Mof_H 	H 	0.1529	0.8892	0.6598	0.034
Mof_C 	C 	0.2139	0.8943	0.6519	-0.019
Mof_C 	C 	0.2149	0.9197	0.6176	-0.03
Mof_H 	H 	0.1899	0.9287	0.6061	0.051
Mof_O 	O 	0.2166	0.9666	0.5484	-0.183
Mof_O 	O 	0.2848	0.966	0.5479	-0.172
Mof_C 	C 	0.2491	0.9387	0.544	0.142
Mof_C 	C 	0.2495	0.8999	0.5696	0
Mof_C 	C 	0.2127	0.8825	0.5825	-0.017
Mof_H 	H 	0.1877	0.8935	0.573	0.042
Mof_C 	C 	0.2122	0.8508	0.6066	-0.067
Mof_H 	H 	0.1875	0.8409	0.6162	0.048
Mof_C 	C 	0.2483	0.8317	0.6193	0.04
Mof_C 	C 	0.2493	0.7982	0.6454	-0.091
Mof_H 	H 	0.2246	0.7874	0.654	-0.041
Mof_C 	C 	0.2834	0.7821	0.658	0.184
Mof_C 	C 	0.3217	0.7988	0.6434	-0.114
Mof_H 	H 	0.347	0.7869	0.651	0.046
Mof_C 	C 	0.3214	0.8297	0.6187	-0.023
Mof_H 	H 	0.3462	0.8401	0.6099	0.036
Mof_C 	C 	0.2864	0.8484	0.6056	0.011
Mof_C 	C 	0.2849	0.8824	0.5808	-0.062
Mof_H 	H 	0.3099	0.8939	0.5719	0.06
Mof_O 	O 	0.2156	0.9522	0.5344	-0.2
Mof_O 	O 	0.2832	0.9517	0.534	-0.208
Mof_C 	C 	0.71666	0.31285	0.25366	-0.104
Mof_C 	C 	0.68732	0.28303	0.25334	0.092
Mof_H 	H 	0.6688	0.2831	0.2313	-0.109
Mof_C 	C 	0.7506	0.4567	0.0611	0.141
Mof_C 	C 	0.7505	0.4305	0.1	-0.028
Mof_C 	C 	0.7878	0.4186	0.1173	0.023
Mof_H 	H 	0.8127	0.4277	0.1058	0.028
Mof_C 	C 	0.7883	0.3934	0.1498	-0.123
Mof_H 	H 	0.813	0.3843	0.1602	0.07
Mof_C 	C 	0.752	0.3805	0.1682	0.109
Mof_C 	C 	0.7505	0.355	0.2016	-0.21
Mof_H 	H 	0.7752	0.3471	0.2132	0.164
Mof_C 	C 	0.7161	0.3418	0.2186	0.118
Mof_C 	C 	0.6783	0.356	0.2014	-0.092
Mof_H 	H 	0.6533	0.3481	0.2135	0.046
Mof_C 	C 	0.6779	0.3808	0.1704	-0.015
Mof_H 	H 	0.6529	0.3892	0.1598	0.032
Mof_C 	C 	0.7139	0.3943	0.1519	-0.021
Mof_C 	C 	0.7149	0.4197	0.1176	-0.03
Mof_H 	H 	0.6899	0.4287	0.1061	0.048
Mof_O 	O 	0.7166	0.4666	0.0484	-0.191
Mof_O 	O 	0.7848	0.466	0.0479	-0.18
Mof_C 	C 	0.7491	0.4387	0.044	0.142
Mof_C 	C 	0.7495	0.3999	0.0696	-0.004
Mof_C 	C 	0.7127	0.3825	0.0825	-0.015
Mof_H 	H 	0.6877	0.3935	0.073	0.039
Mof_C 	C 	0.7122	0.3508	0.1066	-0.07
Mof_H 	H 	0.6875	0.3409	0.1162	0.049
Mof_C 	C 	0.7483	0.3317	0.1193	0.04
Mof_C 	C 	0.7493	0.2982	0.1454	-0.09
Mof_H 	H 	0.7246	0.2874	0.154	-0.046
Mof_C 	C 	0.7834	0.2821	0.158	0.186
Mof_C 	C 	0.8217	0.2988	0.1434	-0.116
Mof_H 	H 	0.847	0.2869	0.151	0.046
Mof_C 	C 	0.8214	0.3297	0.1187	-0.022
Mof_H 	H 	0.8462	0.3401	0.1099	0.034
Mof_C 	C 	0.7864	0.3484	0.1056	0.008
Mof_C 	C 	0.7849	0.3824	0.0808	-0.06
Mof_H 	H 	0.8099	0.3939	0.0719	0.057
Mof_O 	O 	0.7156	0.4522	0.0344	-0.207
Mof_O 	O 	0.7832	0.4517	0.034	-0.215
Mof_C 	C 	0.24634	0.21666	0.18715	-0.107
Mof_C 	C 	0.24666	0.18732	0.21697	0.093
Mof_H 	H 	0.2687	0.1688	0.2169	-0.112
Mof_C 	C 	0.4389	0.2506	0.0433	0.124
Mof_C 	C 	0.4	0.2505	0.0695	-0.024
Mof_C 	C 	0.3827	0.2878	0.0814	0.018
Mof_H 	H 	0.3942	0.3127	0.0723	0.028
Mof_C 	C 	0.3502	0.2883	0.1066	-0.123
Mof_H 	H 	0.3398	0.313	0.1157	0.069
Mof_C 	C 	0.3318	0.252	0.1195	0.109
Mof_C 	C 	0.2984	0.2505	0.145	-0.215
Mof_H 	H 	0.2868	0.2752	0.1529	0.169
Mof_C 	C 	0.2814	0.2161	0.1582	0.119
Mof_C 	C 	0.2986	0.1783	0.144	-0.094
Mof_H 	H 	0.2865	0.1533	0.1519	0.046
Mof_C 	C 	0.3296	0.1779	0.1192	-0.016
Mof_H 	H 	0.3402	0.1529	0.1108	0.029
Mof_C 	C 	0.3481	0.2139	0.1057	-0.022
Mof_C 	C 	0.3824	0.2149	0.0803	-0.035
Mof_H 	H 	0.3939	0.1899	0.0713	0.047
Mof_O 	O 	0.4516	0.2166	0.0334	-0.197
Mof_O 	O 	0.4521	0.2848	0.034	-0.187
Mof_C 	C 	0.456	0.2491	0.0613	0.16
Mof_C 	C 	0.4304	0.2495	0.1001	-0.009
Mof_C 	C 	0.4175	0.2127	0.1175	-0.008
Mof_H 	H 	0.427	0.1877	0.1065	0.037
Mof_C 	C 	0.3934	0.2122	0.1492	-0.073
Mof_H 	H 	0.3838	0.1875	0.1591	0.05
Mof_C 	C 	0.3807	0.2483	0.1683	0.043
Mof_C 	C 	0.3546	0.2493	0.2018	-0.09
Mof_H 	H 	0.346	0.2246	0.2126	-0.044
Mof_C 	C 	0.342	0.2834	0.2179	0.184
Mof_C 	C 	0.3566	0.3217	0.2012	-0.115
Mof_H 	H 	0.349	0.347	0.2131	0.046
Mof_C 	C 	0.3813	0.3214	0.1703	-0.02
Mof_H 	H 	0.3901	0.3462	0.1599	0.034
Mof_C 	C 	0.3944	0.2864	0.1516	0.006
Mof_C 	C 	0.4192	0.2849	0.1176	-0.054
Mof_H 	H 	0.4281	0.3099	0.1061	0.055
Mof_O 	O 	0.4656	0.2156	0.0478	-0.202
Mof_O 	O 	0.466	0.2832	0.0483	-0.208
Mof_C 	C 	0.74634	0.71666	0.68715	-0.106
Mof_C 	C 	0.74666	0.68732	0.71697	0.094
Mof_H 	H 	0.7687	0.6688	0.7169	-0.112
Mof_C 	C 	0.9389	0.7506	0.5433	0.124
Mof_C 	C 	0.9	0.7505	0.5695	-0.02
Mof_C 	C 	0.8827	0.7878	0.5814	0.017
Mof_H 	H 	0.8942	0.8127	0.5723	0.032
Mof_C 	C 	0.8502	0.7883	0.6066	-0.12
Mof_H 	H 	0.8398	0.813	0.6157	0.069
Mof_C 	C 	0.8318	0.752	0.6195	0.108
Mof_C 	C 	0.7984	0.7505	0.645	-0.214
Mof_H 	H 	0.7868	0.7752	0.6529	0.168
Mof_C 	C 	0.7814	0.7161	0.6582	0.119
Mof_C 	C 	0.7986	0.6783	0.644	-0.092
Mof_H 	H 	0.7865	0.6533	0.6519	0.046
Mof_C 	C 	0.8296	0.6779	0.6192	-0.017
Mof_H 	H 	0.8402	0.6529	0.6108	0.034
Mof_C 	C 	0.8481	0.7139	0.6057	-0.018
Mof_C 	C 	0.8824	0.7149	0.5803	-0.036
Mof_H 	H 	0.8939	0.6899	0.5713	0.051
Mof_O 	O 	0.9516	0.7166	0.5334	-0.189
Mof_O 	O 	0.9521	0.7848	0.534	-0.178
Mof_C 	C 	0.956	0.7491	0.5613	0.16
Mof_C 	C 	0.9304	0.7495	0.6001	-0.004
Mof_C 	C 	0.9175	0.7127	0.6175	-0.011
Mof_H 	H 	0.927	0.6877	0.6065	0.042
Mof_C 	C 	0.8934	0.7122	0.6492	-0.068
Mof_H 	H 	0.8838	0.6875	0.6591	0.05
Mof_C 	C 	0.8807	0.7483	0.6683	0.042
Mof_C 	C 	0.8546	0.7493	0.7018	-0.089
Mof_H 	H 	0.846	0.7246	0.7126	-0.044
Mof_C 	C 	0.842	0.7834	0.7179	0.185
Mof_C 	C 	0.8566	0.8217	0.7012	-0.112
Mof_H 	H 	0.849	0.847	0.7131	0.046
Mof_C 	C 	0.8813	0.8214	0.6703	-0.022
Mof_H 	H 	0.8901	0.8462	0.6599	0.038
Mof_C 	C 	0.8944	0.7864	0.6516	0.011
Mof_C 	C 	0.9192	0.7849	0.6176	-0.056
Mof_H 	H 	0.9281	0.8099	0.6061	0.06
Mof_O 	O 	0.9656	0.7156	0.5478	-0.193
Mof_O 	O 	0.966	0.7832	0.5483	-0.201
Mof_C 	C 	0.24634	0.78334	0.81285	-0.104
Mof_C 	C 	0.24666	0.81268	0.78303	0.093
Mof_H 	H 	0.2687	0.8312	0.7831	-0.11
Mof_C 	C 	0.4389	0.7494	0.9567	0.142
Mof_C 	C 	0.4	0.7495	0.9305	-0.025
Mof_C 	C 	0.3827	0.7122	0.9186	0.023
Mof_H 	H 	0.3942	0.6873	0.9277	0.031
Mof_C 	C 	0.3502	0.7117	0.8934	-0.121
Mof_H 	H 	0.3398	0.687	0.8843	0.07
Mof_C 	C 	0.3318	0.748	0.8805	0.11
Mof_C 	C 	0.2984	0.7495	0.855	-0.211
Mof_H 	H 	0.2868	0.7248	0.8471	0.166
Mof_C 	C 	0.2814	0.7839	0.8418	0.119
Mof_C 	C 	0.2986	0.8217	0.856	-0.091
Mof_H 	H 	0.2865	0.8467	0.8481	0.047
Mof_C 	C 	0.3296	0.8221	0.8808	-0.015
Mof_H 	H 	0.3402	0.8471	0.8892	0.036
Mof_C 	C 	0.3481	0.7861	0.8943	-0.018
Mof_C 	C 	0.3824	0.7851	0.9197	-0.03
Mof_H 	H 	0.3939	0.8101	0.9287	0.052
Mof_O 	O 	0.4516	0.7834	0.9666	-0.182
Mof_O 	O 	0.4521	0.7152	0.966	-0.171
Mof_C 	C 	0.456	0.7509	0.9387	0.142
Mof_C 	C 	0.4304	0.7505	0.8999	0.001
Mof_C 	C 	0.4175	0.7873	0.8825	-0.018
Mof_H 	H 	0.427	0.8123	0.8935	0.044
Mof_C 	C 	0.3934	0.7878	0.8508	-0.066
Mof_H 	H 	0.3838	0.8125	0.8409	0.048
Mof_C 	C 	0.3807	0.7517	0.8317	0.039
Mof_C 	C 	0.3546	0.7507	0.7982	-0.088
Mof_H 	H 	0.346	0.7754	0.7874	-0.047
Mof_C 	C 	0.342	0.7166	0.7821	0.187
Mof_C 	C 	0.3566	0.6783	0.7988	-0.115
Mof_H 	H 	0.349	0.653	0.7869	0.046
Mof_C 	C 	0.3813	0.6786	0.8297	-0.023
Mof_H 	H 	0.3901	0.6538	0.8401	0.036
Mof_C 	C 	0.3944	0.7136	0.8484	0.011
Mof_C 	C 	0.4192	0.7151	0.8824	-0.062
Mof_H 	H 	0.4281	0.6901	0.8939	0.06
Mof_O 	O 	0.4656	0.7844	0.9522	-0.199
Mof_O 	O 	0.466	0.7168	0.9517	-0.208
Mof_C 	C 	0.74634	0.28334	0.31285	-0.105
Mof_C 	C 	0.74666	0.31268	0.28303	0.092
Mof_H 	H 	0.7687	0.3312	0.2831	-0.11
Mof_C 	C 	0.9389	0.2494	0.4567	0.124
Mof_C 	C 	0.9	0.2495	0.4305	-0.021
Mof_C 	C 	0.8827	0.2122	0.4186	0.018
Mof_H 	H 	0.8942	0.1873	0.4277	0.03
Mof_C 	C 	0.8502	0.2117	0.3934	-0.121
Mof_H 	H 	0.8398	0.187	0.3843	0.069
Mof_C 	C 	0.8318	0.248	0.3805	0.11
Mof_C 	C 	0.7984	0.2495	0.355	-0.217
Mof_H 	H 	0.7868	0.2248	0.3471	0.172
Mof_C 	C 	0.7814	0.2839	0.3418	0.12
Mof_C 	C 	0.7986	0.3217	0.356	-0.093
Mof_H 	H 	0.7865	0.3467	0.3481	0.046
Mof_C 	C 	0.8296	0.3221	0.3808	-0.016
Mof_H 	H 	0.8402	0.3471	0.3892	0.033
Mof_C 	C 	0.8481	0.2861	0.3943	-0.019
Mof_C 	C 	0.8824	0.2851	0.4197	-0.035
Mof_H 	H 	0.8939	0.3101	0.4287	0.051
Mof_O 	O 	0.9516	0.2834	0.4666	-0.189
Mof_O 	O 	0.9521	0.2152	0.466	-0.178
Mof_C 	C 	0.956	0.2509	0.4387	0.16
Mof_C 	C 	0.9304	0.2505	0.3999	-0.005
Mof_C 	C 	0.9175	0.2873	0.3825	-0.011
Mof_H 	H 	0.927	0.3123	0.3935	0.042
Mof_C 	C 	0.8934	0.2878	0.3508	-0.069
Mof_H 	H 	0.8838	0.3125	0.3409	0.05
Mof_C 	C 	0.8807	0.2517	0.3317	0.042
Mof_C 	C 	0.8546	0.2507	0.2982	-0.089
Mof_H 	H 	0.846	0.2754	0.2874	-0.043
Mof_C 	C 	0.842	0.2166	0.2821	0.184
Mof_C 	C 	0.8566	0.1783	0.2988	-0.114
Mof_H 	H 	0.849	0.153	0.2869	0.046
Mof_C 	C 	0.8813	0.1786	0.3297	-0.021
Mof_H 	H 	0.8901	0.1538	0.3401	0.035
Mof_C 	C 	0.8944	0.2136	0.3484	0.009
Mof_C 	C 	0.9192	0.2151	0.3824	-0.056
Mof_H 	H 	0.9281	0.1901	0.3939	0.058
Mof_O 	O 	0.9656	0.2844	0.4522	-0.193
Mof_O 	O 	0.966	0.2168	0.4517	-0.202
Mof_C 	C 	0.75366	0.78334	0.18715	-0.105
Mof_C 	C 	0.75334	0.81268	0.21697	0.093
Mof_H 	H 	0.7313	0.8312	0.2169	-0.11
Mof_C 	C 	0.5611	0.7494	0.0433	0.124
Mof_C 	C 	0.6	0.7495	0.0695	-0.023
Mof_C 	C 	0.6173	0.7122	0.0814	0.018
Mof_H 	H 	0.6058	0.6873	0.0723	0.028
Mof_C 	C 	0.6498	0.7117	0.1066	-0.122
Mof_H 	H 	0.6602	0.687	0.1157	0.069
Mof_C 	C 	0.6682	0.748	0.1195	0.109
Mof_C 	C 	0.7016	0.7495	0.145	-0.215
Mof_H 	H 	0.7132	0.7248	0.1529	0.169
Mof_C 	C 	0.7186	0.7839	0.1582	0.12
Mof_C 	C 	0.7014	0.8217	0.144	-0.093
Mof_H 	H 	0.7135	0.8467	0.1519	0.046
Mof_C 	C 	0.6704	0.8221	0.1192	-0.016
Mof_H 	H 	0.6598	0.8471	0.1108	0.033
Mof_C 	C 	0.6519	0.7861	0.1057	-0.02
Mof_C 	C 	0.6176	0.7851	0.0803	-0.035
Mof_H 	H 	0.6061	0.8101	0.0713	0.049
Mof_O 	O 	0.5484	0.7834	0.0334	-0.196
Mof_O 	O 	0.5479	0.7152	0.034	-0.187
Mof_C 	C 	0.544	0.7509	0.0613	0.16
Mof_C 	C 	0.5696	0.7505	0.1001	-0.009
Mof_C 	C 	0.5825	0.7873	0.1175	-0.009
Mof_H 	H 	0.573	0.8123	0.1065	0.039
Mof_C 	C 	0.6066	0.7878	0.1492	-0.072
Mof_H 	H 	0.6162	0.8125	0.1591	0.05
Mof_C 	C 	0.6193	0.7517	0.1683	0.042
Mof_C 	C 	0.6454	0.7507	0.2018	-0.088
Mof_H 	H 	0.654	0.7754	0.2126	-0.048
Mof_C 	C 	0.658	0.7166	0.2179	0.186
Mof_C 	C 	0.6434	0.6783	0.2012	-0.116
Mof_H 	H 	0.651	0.653	0.2131	0.046
Mof_C 	C 	0.6187	0.6786	0.1703	-0.02
Mof_H 	H 	0.6099	0.6538	0.1599	0.034
Mof_C 	C 	0.6056	0.7136	0.1516	0.006
Mof_C 	C 	0.5808	0.7151	0.1176	-0.054
Mof_H 	H 	0.5719	0.6901	0.1061	0.055
Mof_O 	O 	0.5344	0.7844	0.0478	-0.201
Mof_O 	O 	0.534	0.7168	0.0483	-0.208
Mof_C 	C 	0.25366	0.28334	0.68715	-0.104
Mof_C 	C 	0.25334	0.31268	0.71697	0.094
Mof_H 	H 	0.2313	0.3312	0.7169	-0.112
Mof_C 	C 	0.0611	0.2494	0.5433	0.141
Mof_C 	C 	0.1	0.2495	0.5695	-0.028
Mof_C 	C 	0.1173	0.2122	0.5814	0.023
Mof_H 	H 	0.1058	0.1873	0.5723	0.026
Mof_C 	C 	0.1498	0.2117	0.6066	-0.124
Mof_H 	H 	0.1602	0.187	0.6157	0.07
Mof_C 	C 	0.1682	0.248	0.6195	0.11
Mof_C 	C 	0.2016	0.2495	0.645	-0.212
Mof_H 	H 	0.2132	0.2248	0.6529	0.165
Mof_C 	C 	0.2186	0.2839	0.6582	0.119
Mof_C 	C 	0.2014	0.3217	0.644	-0.093
Mof_H 	H 	0.2135	0.3467	0.6519	0.046
Mof_C 	C 	0.1704	0.3221	0.6192	-0.015
Mof_H 	H 	0.1598	0.3471	0.6108	0.032
Mof_C 	C 	0.1519	0.2861	0.6057	-0.021
Mof_C 	C 	0.1176	0.2851	0.5803	-0.029
Mof_H 	H 	0.1061	0.3101	0.5713	0.048
Mof_O 	O 	0.0484	0.2834	0.5334	-0.19
Mof_O 	O 	0.0479	0.2152	0.534	-0.181
Mof_C 	C 	0.044	0.2509	0.5613	0.142
Mof_C 	C 	0.0696	0.2505	0.6001	-0.004
Mof_C 	C 	0.0825	0.2873	0.6175	-0.015
Mof_H 	H 	0.073	0.3123	0.6065	0.039
Mof_C 	C 	0.1066	0.2878	0.6492	-0.07
Mof_H 	H 	0.1162	0.3125	0.6591	0.049
Mof_C 	C 	0.1193	0.2517	0.6683	0.04
Mof_C 	C 	0.1454	0.2507	0.7018	-0.089
Mof_H 	H 	0.154	0.2754	0.7126	-0.047
Mof_C 	C 	0.158	0.2166	0.7179	0.186
Mof_C 	C 	0.1434	0.1783	0.7012	-0.117
Mof_H 	H 	0.151	0.153	0.7131	0.046
Mof_C 	C 	0.1187	0.1786	0.6703	-0.021
Mof_H 	H 	0.1099	0.1538	0.6599	0.032
Mof_C 	C 	0.1056	0.2136	0.6516	0.007
Mof_C 	C 	0.0808	0.2151	0.6176	-0.06
Mof_H 	H 	0.0719	0.1901	0.6061	0.055
Mof_O 	O 	0.0344	0.2844	0.5478	-0.207
Mof_O 	O 	0.034	0.2168	0.5483	-0.216
Mof_C 	C 	0.75366	0.21666	0.81285	-0.104
Mof_C 	C 	0.75334	0.18732	0.78303	0.093
Mof_H 	H 	0.7313	0.1688	0.7831	-0.112
Mof_C 	C 	0.5611	0.2506	0.9567	0.142
Mof_C 	C 	0.6	0.2505	0.9305	-0.025
Mof_C 	C 	0.6173	0.2878	0.9186	0.023
Mof_H 	H 	0.6058	0.3127	0.9277	0.031
Mof_C 	C 	0.6498	0.2883	0.8934	-0.121
Mof_H 	H 	0.6602	0.313	0.8843	0.07
Mof_C 	C 	0.6682	0.252	0.8805	0.109
Mof_C 	C 	0.7016	0.2505	0.855	-0.211
Mof_H 	H 	0.7132	0.2752	0.8471	0.165
Mof_C 	C 	0.7186	0.2161	0.8418	0.119
Mof_C 	C 	0.7014	0.1783	0.856	-0.091
Mof_H 	H 	0.7135	0.1533	0.8481	0.046
Mof_C 	C 	0.6704	0.1779	0.8808	-0.015
Mof_H 	H 	0.6598	0.1529	0.8892	0.034
Mof_C 	C 	0.6519	0.2139	0.8943	-0.019
Mof_C 	C 	0.6176	0.2149	0.9197	-0.03
Mof_H 	H 	0.6061	0.1899	0.9287	0.051
Mof_O 	O 	0.5484	0.2166	0.9666	-0.183
Mof_O 	O 	0.5479	0.2848	0.966	-0.172
Mof_C 	C 	0.544	0.2491	0.9387	0.142
Mof_C 	C 	0.5696	0.2495	0.8999	0
Mof_C 	C 	0.5825	0.2127	0.8825	-0.017
Mof_H 	H 	0.573	0.1877	0.8935	0.042
Mof_C 	C 	0.6066	0.2122	0.8508	-0.067
Mof_H 	H 	0.6162	0.1875	0.8409	0.048
Mof_C 	C 	0.6193	0.2483	0.8317	0.04
Mof_C 	C 	0.6454	0.2493	0.7982	-0.091
Mof_H 	H 	0.654	0.2246	0.7874	-0.041
Mof_C 	C 	0.658	0.2834	0.7821	0.184
Mof_C 	C 	0.6434	0.3217	0.7988	-0.114
Mof_H 	H 	0.651	0.347	0.7869	0.046
Mof_C 	C 	0.6187	0.3214	0.8297	-0.023
Mof_H 	H 	0.6099	0.3462	0.8401	0.036
Mof_C 	C 	0.6056	0.2864	0.8484	0.011
Mof_C 	C 	0.5808	0.2849	0.8824	-0.062
Mof_H 	H 	0.5719	0.3099	0.8939	0.06
Mof_O 	O 	0.5344	0.2156	0.9522	-0.2
Mof_O 	O 	0.534	0.2832	0.9517	-0.208
Mof_C 	C 	0.25366	0.71666	0.31285	-0.104
Mof_C 	C 	0.25334	0.68732	0.28303	0.092
Mof_H 	H 	0.2313	0.6688	0.2831	-0.109
Mof_C 	C 	0.0611	0.7506	0.4567	0.141
Mof_C 	C 	0.1	0.7505	0.4305	-0.028
Mof_C 	C 	0.1173	0.7878	0.4186	0.023
Mof_H 	H 	0.1058	0.8127	0.4277	0.028
Mof_C 	C 	0.1498	0.7883	0.3934	-0.123
Mof_H 	H 	0.1602	0.813	0.3843	0.07
Mof_C 	C 	0.1682	0.752	0.3805	0.109
Mof_C 	C 	0.2016	0.7505	0.355	-0.21
Mof_H 	H 	0.2132	0.7752	0.3471	0.164
Mof_C 	C 	0.2186	0.7161	0.3418	0.118
Mof_C 	C 	0.2014	0.6783	0.356	-0.092
Mof_H 	H 	0.2135	0.6533	0.3481	0.046
Mof_C 	C 	0.1704	0.6779	0.3808	-0.015
Mof_H 	H 	0.1598	0.6529	0.3892	0.032
Mof_C 	C 	0.1519	0.7139	0.3943	-0.021
Mof_C 	C 	0.1176	0.7149	0.4197	-0.03
Mof_H 	H 	0.1061	0.6899	0.4287	0.048
Mof_O 	O 	0.0484	0.7166	0.4666	-0.191
Mof_O 	O 	0.0479	0.7848	0.466	-0.18
Mof_C 	C 	0.044	0.7491	0.4387	0.142
Mof_C 	C 	0.0696	0.7495	0.3999	-0.004
Mof_C 	C 	0.0825	0.7127	0.3825	-0.015
Mof_H 	H 	0.073	0.6877	0.3935	0.039
Mof_C 	C 	0.1066	0.7122	0.3508	-0.07
Mof_H 	H 	0.1162	0.6875	0.3409	0.049
Mof_C 	C 	0.1193	0.7483	0.3317	0.04
Mof_C 	C 	0.1454	0.7493	0.2982	-0.09
Mof_H 	H 	0.154	0.7246	0.2874	-0.046
Mof_C 	C 	0.158	0.7834	0.2821	0.186
Mof_C 	C 	0.1434	0.8217	0.2988	-0.116
Mof_H 	H 	0.151	0.847	0.2869	0.046
Mof_C 	C 	0.1187	0.8214	0.3297	-0.022
Mof_H 	H 	0.1099	0.8462	0.3401	0.034
Mof_C 	C 	0.1056	0.7864	0.3484	0.008
Mof_C 	C 	0.0808	0.7849	0.3824	-0.06
Mof_H 	H 	0.0719	0.8099	0.3939	0.057
Mof_O 	O 	0.0344	0.7156	0.4522	-0.207
Mof_O 	O 	0.034	0.7832	0.4517	-0.215
Mof_C 	C 	0.18715	0.24634	0.21666	-0.107
Mof_C 	C 	0.21697	0.24666	0.18732	0.093
Mof_H 	H 	0.2169	0.2687	0.1688	-0.112
Mof_C 	C 	0.0433	0.4389	0.2506	0.124
Mof_C 	C 	0.0695	0.4	0.2505	-0.024
Mof_C 	C 	0.0814	0.3827	0.2878	0.018
Mof_H 	H 	0.0723	0.3942	0.3127	0.028
Mof_C 	C 	0.1066	0.3502	0.2883	-0.123
Mof_H 	H 	0.1157	0.3398	0.313	0.069
Mof_C 	C 	0.1195	0.3318	0.252	0.109
Mof_C 	C 	0.145	0.2984	0.2505	-0.215
Mof_H 	H 	0.1529	0.2868	0.2752	0.169
Mof_C 	C 	0.1582	0.2814	0.2161	0.119
Mof_C 	C 	0.144	0.2986	0.1783	-0.094
Mof_H 	H 	0.1519	0.2865	0.1533	0.046
Mof_C 	C 	0.1192	0.3296	0.1779	-0.016
Mof_H 	H 	0.1108	0.3402	0.1529	0.029
Mof_C 	C 	0.1057	0.3481	0.2139	-0.022
Mof_C 	C 	0.0803	0.3824	0.2149	-0.035
Mof_H 	H 	0.0713	0.3939	0.1899	0.047
Mof_O 	O 	0.0334	0.4516	0.2166	-0.197
Mof_O 	O 	0.034	0.4521	0.2848	-0.187
Mof_C 	C 	0.0613	0.456	0.2491	0.16
Mof_C 	C 	0.1001	0.4304	0.2495	-0.009
Mof_C 	C 	0.1175	0.4175	0.2127	-0.008
Mof_H 	H 	0.1065	0.427	0.1877	0.037
Mof_C 	C 	0.1492	0.3934	0.2122	-0.073
Mof_H 	H 	0.1591	0.3838	0.1875	0.05
Mof_C 	C 	0.1683	0.3807	0.2483	0.043
Mof_C 	C 	0.2018	0.3546	0.2493	-0.09
Mof_H 	H 	0.2126	0.346	0.2246	-0.044
Mof_C 	C 	0.2179	0.342	0.2834	0.184
Mof_C 	C 	0.2012	0.3566	0.3217	-0.115
Mof_H 	H 	0.2131	0.349	0.347	0.046
Mof_C 	C 	0.1703	0.3813	0.3214	-0.02
Mof_H 	H 	0.1599	0.3901	0.3462	0.034
Mof_C 	C 	0.1516	0.3944	0.2864	0.006
Mof_C 	C 	0.1176	0.4192	0.2849	-0.054
Mof_H 	H 	0.1061	0.4281	0.3099	0.055
Mof_O 	O 	0.0478	0.4656	0.2156	-0.202
Mof_O 	O 	0.0483	0.466	0.2832	-0.208
Mof_C 	C 	0.68715	0.74634	0.71666	-0.106
Mof_C 	C 	0.71697	0.74666	0.68732	0.094
Mof_H 	H 	0.7169	0.7687	0.6688	-0.112
Mof_C 	C 	0.5433	0.9389	0.7506	0.124
Mof_C 	C 	0.5695	0.9	0.7505	-0.02
Mof_C 	C 	0.5814	0.8827	0.7878	0.017
Mof_H 	H 	0.5723	0.8942	0.8127	0.032
Mof_C 	C 	0.6066	0.8502	0.7883	-0.12
Mof_H 	H 	0.6157	0.8398	0.813	0.069
Mof_C 	C 	0.6195	0.8318	0.752	0.108
Mof_C 	C 	0.645	0.7984	0.7505	-0.214
Mof_H 	H 	0.6529	0.7868	0.7752	0.168
Mof_C 	C 	0.6582	0.7814	0.7161	0.119
Mof_C 	C 	0.644	0.7986	0.6783	-0.092
Mof_H 	H 	0.6519	0.7865	0.6533	0.046
Mof_C 	C 	0.6192	0.8296	0.6779	-0.017
Mof_H 	H 	0.6108	0.8402	0.6529	0.034
Mof_C 	C 	0.6057	0.8481	0.7139	-0.018
Mof_C 	C 	0.5803	0.8824	0.7149	-0.036
Mof_H 	H 	0.5713	0.8939	0.6899	0.051
Mof_O 	O 	0.5334	0.9516	0.7166	-0.189
Mof_O 	O 	0.534	0.9521	0.7848	-0.178
Mof_C 	C 	0.5613	0.956	0.7491	0.16
Mof_C 	C 	0.6001	0.9304	0.7495	-0.004
Mof_C 	C 	0.6175	0.9175	0.7127	-0.011
Mof_H 	H 	0.6065	0.927	0.6877	0.042
Mof_C 	C 	0.6492	0.8934	0.7122	-0.068
Mof_H 	H 	0.6591	0.8838	0.6875	0.05
Mof_C 	C 	0.6683	0.8807	0.7483	0.042
Mof_C 	C 	0.7018	0.8546	0.7493	-0.089
Mof_H 	H 	0.7126	0.846	0.7246	-0.044
Mof_C 	C 	0.7179	0.842	0.7834	0.185
Mof_C 	C 	0.7012	0.8566	0.8217	-0.112
Mof_H 	H 	0.7131	0.849	0.847	0.046
Mof_C 	C 	0.6703	0.8813	0.8214	-0.022
Mof_H 	H 	0.6599	0.8901	0.8462	0.038
Mof_C 	C 	0.6516	0.8944	0.7864	0.011
Mof_C 	C 	0.6176	0.9192	0.7849	-0.056
Mof_H 	H 	0.6061	0.9281	0.8099	0.06
Mof_O 	O 	0.5478	0.9656	0.7156	-0.193
Mof_O 	O 	0.5483	0.966	0.7832	-0.201
Mof_C 	C 	0.81285	0.24634	0.78334	-0.104
Mof_C 	C 	0.78303	0.24666	0.81268	0.093
Mof_H 	H 	0.7831	0.2687	0.8312	-0.11
Mof_C 	C 	0.9567	0.4389	0.7494	0.142
Mof_C 	C 	0.9305	0.4	0.7495	-0.025
Mof_C 	C 	0.9186	0.3827	0.7122	0.023
Mof_H 	H 	0.9277	0.3942	0.6873	0.031
Mof_C 	C 	0.8934	0.3502	0.7117	-0.121
Mof_H 	H 	0.8843	0.3398	0.687	0.07
Mof_C 	C 	0.8805	0.3318	0.748	0.11
Mof_C 	C 	0.855	0.2984	0.7495	-0.211
Mof_H 	H 	0.8471	0.2868	0.7248	0.166
Mof_C 	C 	0.8418	0.2814	0.7839	0.119
Mof_C 	C 	0.856	0.2986	0.8217	-0.091
Mof_H 	H 	0.8481	0.2865	0.8467	0.047
Mof_C 	C 	0.8808	0.3296	0.8221	-0.015
Mof_H 	H 	0.8892	0.3402	0.8471	0.036
Mof_C 	C 	0.8943	0.3481	0.7861	-0.018
Mof_C 	C 	0.9197	0.3824	0.7851	-0.03
Mof_H 	H 	0.9287	0.3939	0.8101	0.052
Mof_O 	O 	0.9666	0.4516	0.7834	-0.182
Mof_O 	O 	0.966	0.4521	0.7152	-0.171
Mof_C 	C 	0.9387	0.456	0.7509	0.142
Mof_C 	C 	0.8999	0.4304	0.7505	0.001
Mof_C 	C 	0.8825	0.4175	0.7873	-0.018
Mof_H 	H 	0.8935	0.427	0.8123	0.044
Mof_C 	C 	0.8508	0.3934	0.7878	-0.066
Mof_H 	H 	0.8409	0.3838	0.8125	0.048
Mof_C 	C 	0.8317	0.3807	0.7517	0.039
Mof_C 	C 	0.7982	0.3546	0.7507	-0.088
Mof_H 	H 	0.7874	0.346	0.7754	-0.047
Mof_C 	C 	0.7821	0.342	0.7166	0.187
Mof_C 	C 	0.7988	0.3566	0.6783	-0.115
Mof_H 	H 	0.7869	0.349	0.653	0.046
Mof_C 	C 	0.8297	0.3813	0.6786	-0.023
Mof_H 	H 	0.8401	0.3901	0.6538	0.036
Mof_C 	C 	0.8484	0.3944	0.7136	0.011
Mof_C 	C 	0.8824	0.4192	0.7151	-0.062
Mof_H 	H 	0.8939	0.4281	0.6901	0.06
Mof_O 	O 	0.9522	0.4656	0.7844	-0.199
Mof_O 	O 	0.9517	0.466	0.7168	-0.208
Mof_C 	C 	0.31285	0.74634	0.28334	-0.105
Mof_C 	C 	0.28303	0.74666	0.31268	0.092
Mof_H 	H 	0.2831	0.7687	0.3312	-0.11
Mof_C 	C 	0.4567	0.9389	0.2494	0.124
Mof_C 	C 	0.4305	0.9	0.2495	-0.021
Mof_C 	C 	0.4186	0.8827	0.2122	0.018
Mof_H 	H 	0.4277	0.8942	0.1873	0.03
Mof_C 	C 	0.3934	0.8502	0.2117	-0.121
Mof_H 	H 	0.3843	0.8398	0.187	0.069
Mof_C 	C 	0.3805	0.8318	0.248	0.11
Mof_C 	C 	0.355	0.7984	0.2495	-0.217
Mof_H 	H 	0.3471	0.7868	0.2248	0.172
Mof_C 	C 	0.3418	0.7814	0.2839	0.12
Mof_C 	C 	0.356	0.7986	0.3217	-0.093
Mof_H 	H 	0.3481	0.7865	0.3467	0.046
Mof_C 	C 	0.3808	0.8296	0.3221	-0.016
Mof_H 	H 	0.3892	0.8402	0.3471	0.033
Mof_C 	C 	0.3943	0.8481	0.2861	-0.019
Mof_C 	C 	0.4197	0.8824	0.2851	-0.035
Mof_H 	H 	0.4287	0.8939	0.3101	0.051
Mof_O 	O 	0.4666	0.9516	0.2834	-0.189
Mof_O 	O 	0.466	0.9521	0.2152	-0.178
Mof_C 	C 	0.4387	0.956	0.2509	0.16
Mof_C 	C 	0.3999	0.9304	0.2505	-0.005
Mof_C 	C 	0.3825	0.9175	0.2873	-0.011
Mof_H 	H 	0.3935	0.927	0.3123	0.042
Mof_C 	C 	0.3508	0.8934	0.2878	-0.069
Mof_H 	H 	0.3409	0.8838	0.3125	0.05
Mof_C 	C 	0.3317	0.8807	0.2517	0.042
Mof_C 	C 	0.2982	0.8546	0.2507	-0.089
Mof_H 	H 	0.2874	0.846	0.2754	-0.043
Mof_C 	C 	0.2821	0.842	0.2166	0.184
Mof_C 	C 	0.2988	0.8566	0.1783	-0.114
Mof_H 	H 	0.2869	0.849	0.153	0.046
Mof_C 	C 	0.3297	0.8813	0.1786	-0.021
Mof_H 	H 	0.3401	0.8901	0.1538	0.035
Mof_C 	C 	0.3484	0.8944	0.2136	0.009
Mof_C 	C 	0.3824	0.9192	0.2151	-0.056
Mof_H 	H 	0.3939	0.9281	0.1901	0.058
Mof_O 	O 	0.4522	0.9656	0.2844	-0.193
Mof_O 	O 	0.4517	0.966	0.2168	-0.202
Mof_C 	C 	0.18715	0.75366	0.78334	-0.105
Mof_C 	C 	0.21697	0.75334	0.81268	0.093
Mof_H 	H 	0.2169	0.7313	0.8312	-0.11
Mof_C 	C 	0.0433	0.5611	0.7494	0.124
Mof_C 	C 	0.0695	0.6	0.7495	-0.023
Mof_C 	C 	0.0814	0.6173	0.7122	0.018
Mof_H 	H 	0.0723	0.6058	0.6873	0.028
Mof_C 	C 	0.1066	0.6498	0.7117	-0.122
Mof_H 	H 	0.1157	0.6602	0.687	0.069
Mof_C 	C 	0.1195	0.6682	0.748	0.109
Mof_C 	C 	0.145	0.7016	0.7495	-0.215
Mof_H 	H 	0.1529	0.7132	0.7248	0.169
Mof_C 	C 	0.1582	0.7186	0.7839	0.12
Mof_C 	C 	0.144	0.7014	0.8217	-0.093
Mof_H 	H 	0.1519	0.7135	0.8467	0.046
Mof_C 	C 	0.1192	0.6704	0.8221	-0.016
Mof_H 	H 	0.1108	0.6598	0.8471	0.033
Mof_C 	C 	0.1057	0.6519	0.7861	-0.02
Mof_C 	C 	0.0803	0.6176	0.7851	-0.035
Mof_H 	H 	0.0713	0.6061	0.8101	0.049
Mof_O 	O 	0.0334	0.5484	0.7834	-0.196
Mof_O 	O 	0.034	0.5479	0.7152	-0.187
Mof_C 	C 	0.0613	0.544	0.7509	0.16
Mof_C 	C 	0.1001	0.5696	0.7505	-0.009
Mof_C 	C 	0.1175	0.5825	0.7873	-0.009
Mof_H 	H 	0.1065	0.573	0.8123	0.039
Mof_C 	C 	0.1492	0.6066	0.7878	-0.072
Mof_H 	H 	0.1591	0.6162	0.8125	0.05
Mof_C 	C 	0.1683	0.6193	0.7517	0.042
Mof_C 	C 	0.2018	0.6454	0.7507	-0.088
Mof_H 	H 	0.2126	0.654	0.7754	-0.048
Mof_C 	C 	0.2179	0.658	0.7166	0.186
Mof_C 	C 	0.2012	0.6434	0.6783	-0.116
Mof_H 	H 	0.2131	0.651	0.653	0.046
Mof_C 	C 	0.1703	0.6187	0.6786	-0.02
Mof_H 	H 	0.1599	0.6099	0.6538	0.034
Mof_C 	C 	0.1516	0.6056	0.7136	0.006
Mof_C 	C 	0.1176	0.5808	0.7151	-0.054
Mof_H 	H 	0.1061	0.5719	0.6901	0.055
Mof_O 	O 	0.0478	0.5344	0.7844	-0.201
Mof_O 	O 	0.0483	0.534	0.7168	-0.208
Mof_C 	C 	0.68715	0.25366	0.28334	-0.104
Mof_C 	C 	0.71697	0.25334	0.31268	0.094
Mof_H 	H 	0.7169	0.2313	0.3312	-0.112
Mof_C 	C 	0.5433	0.0611	0.2494	0.141
Mof_C 	C 	0.5695	0.1	0.2495	-0.028
Mof_C 	C 	0.5814	0.1173	0.2122	0.023
Mof_H 	H 	0.5723	0.1058	0.1873	0.026
Mof_C 	C 	0.6066	0.1498	0.2117	-0.124
Mof_H 	H 	0.6157	0.1602	0.187	0.07
Mof_C 	C 	0.6195	0.1682	0.248	0.11
Mof_C 	C 	0.645	0.2016	0.2495	-0.212
Mof_H 	H 	0.6529	0.2132	0.2248	0.165
Mof_C 	C 	0.6582	0.2186	0.2839	0.119
Mof_C 	C 	0.644	0.2014	0.3217	-0.093
Mof_H 	H 	0.6519	0.2135	0.3467	0.046
Mof_C 	C 	0.6192	0.1704	0.3221	-0.015
Mof_H 	H 	0.6108	0.1598	0.3471	0.032
Mof_C 	C 	0.6057	0.1519	0.2861	-0.021
Mof_C 	C 	0.5803	0.1176	0.2851	-0.029
Mof_H 	H 	0.5713	0.1061	0.3101	0.048
Mof_O 	O 	0.5334	0.0484	0.2834	-0.19
Mof_O 	O 	0.534	0.0479	0.2152	-0.181
Mof_C 	C 	0.5613	0.044	0.2509	0.142
Mof_C 	C 	0.6001	0.0696	0.2505	-0.004
Mof_C 	C 	0.6175	0.0825	0.2873	-0.015
Mof_H 	H 	0.6065	0.073	0.3123	0.039
Mof_C 	C 	0.6492	0.1066	0.2878	-0.07
Mof_H 	H 	0.6591	0.1162	0.3125	0.049
Mof_C 	C 	0.6683	0.1193	0.2517	0.04
Mof_C 	C 	0.7018	0.1454	0.2507	-0.089
Mof_H 	H 	0.7126	0.154	0.2754	-0.047
Mof_C 	C 	0.7179	0.158	0.2166	0.186
Mof_C 	C 	0.7012	0.1434	0.1783	-0.117
Mof_H 	H 	0.7131	0.151	0.153	0.046
Mof_C 	C 	0.6703	0.1187	0.1786	-0.021
Mof_H 	H 	0.6599	0.1099	0.1538	0.032
Mof_C 	C 	0.6516	0.1056	0.2136	0.007
Mof_C 	C 	0.6176	0.0808	0.2151	-0.06
Mof_H 	H 	0.6061	0.0719	0.1901	0.055
Mof_O 	O 	0.5478	0.0344	0.2844	-0.207
Mof_O 	O 	0.5483	0.034	0.2168	-0.216
Mof_C 	C 	0.81285	0.75366	0.21666	-0.104
Mof_C 	C 	0.78303	0.75334	0.18732	0.093
Mof_H 	H 	0.7831	0.7313	0.1688	-0.112
Mof_C 	C 	0.9567	0.5611	0.2506	0.142
Mof_C 	C 	0.9305	0.6	0.2505	-0.025
Mof_C 	C 	0.9186	0.6173	0.2878	0.023
Mof_H 	H 	0.9277	0.6058	0.3127	0.031
Mof_C 	C 	0.8934	0.6498	0.2883	-0.121
Mof_H 	H 	0.8843	0.6602	0.313	0.07
Mof_C 	C 	0.8805	0.6682	0.252	0.109
Mof_C 	C 	0.855	0.7016	0.2505	-0.211
Mof_H 	H 	0.8471	0.7132	0.2752	0.165
Mof_C 	C 	0.8418	0.7186	0.2161	0.119
Mof_C 	C 	0.856	0.7014	0.1783	-0.091
Mof_H 	H 	0.8481	0.7135	0.1533	0.046
Mof_C 	C 	0.8808	0.6704	0.1779	-0.015
Mof_H 	H 	0.8892	0.6598	0.1529	0.034
Mof_C 	C 	0.8943	0.6519	0.2139	-0.019
Mof_C 	C 	0.9197	0.6176	0.2149	-0.03
Mof_H 	H 	0.9287	0.6061	0.1899	0.051
Mof_O 	O 	0.9666	0.5484	0.2166	-0.183
Mof_O 	O 	0.966	0.5479	0.2848	-0.172
Mof_C 	C 	0.9387	0.544	0.2491	0.142
Mof_C 	C 	0.8999	0.5696	0.2495	0
Mof_C 	C 	0.8825	0.5825	0.2127	-0.017
Mof_H 	H 	0.8935	0.573	0.1877	0.042
Mof_C 	C 	0.8508	0.6066	0.2122	-0.067
Mof_H 	H 	0.8409	0.6162	0.1875	0.048
Mof_C 	C 	0.8317	0.6193	0.2483	0.04
Mof_C 	C 	0.7982	0.6454	0.2493	-0.091
Mof_H 	H 	0.7874	0.654	0.2246	-0.041
Mof_C 	C 	0.7821	0.658	0.2834	0.184
Mof_C 	C 	0.7988	0.6434	0.3217	-0.114
Mof_H 	H 	0.7869	0.651	0.347	0.046
Mof_C 	C 	0.8297	0.6187	0.3214	-0.023
Mof_H 	H 	0.8401	0.6099	0.3462	0.036
Mof_C 	C 	0.8484	0.6056	0.2864	0.011
Mof_C 	C 	0.8824	0.5808	0.2849	-0.062
Mof_H 	H 	0.8939	0.5719	0.3099	0.06
Mof_O 	O 	0.9522	0.5344	0.2156	-0.2
Mof_O 	O 	0.9517	0.534	0.2832	-0.208
Mof_C 	C 	0.31285	0.25366	0.71666	-0.104
Mof_C 	C 	0.28303	0.25334	0.68732	0.092
Mof_H 	H 	0.2831	0.2313	0.6688	-0.109
Mof_C 	C 	0.4567	0.0611	0.7506	0.141
Mof_C 	C 	0.4305	0.1	0.7505	-0.028
Mof_C 	C 	0.4186	0.1173	0.7878	0.023
Mof_H 	H 	0.4277	0.1058	0.8127	0.028
Mof_C 	C 	0.3934	0.1498	0.7883	-0.123
Mof_H 	H 	0.3843	0.1602	0.813	0.07
Mof_C 	C 	0.3805	0.1682	0.752	0.109
Mof_C 	C 	0.355	0.2016	0.7505	-0.21
Mof_H 	H 	0.3471	0.2132	0.7752	0.164
Mof_C 	C 	0.3418	0.2186	0.7161	0.118
Mof_C 	C 	0.356	0.2014	0.6783	-0.092
Mof_H 	H 	0.3481	0.2135	0.6533	0.046
Mof_C 	C 	0.3808	0.1704	0.6779	-0.015
Mof_H 	H 	0.3892	0.1598	0.6529	0.032
Mof_C 	C 	0.3943	0.1519	0.7139	-0.021
Mof_C 	C 	0.4197	0.1176	0.7149	-0.03
Mof_H 	H 	0.4287	0.1061	0.6899	0.048
Mof_O 	O 	0.4666	0.0484	0.7166	-0.191
Mof_O 	O 	0.466	0.0479	0.7848	-0.18
Mof_C 	C 	0.4387	0.044	0.7491	0.142
Mof_C 	C 	0.3999	0.0696	0.7495	-0.004
Mof_C 	C 	0.3825	0.0825	0.7127	-0.015
Mof_H 	H 	0.3935	0.073	0.6877	0.039
Mof_C 	C 	0.3508	0.1066	0.7122	-0.07
Mof_H 	H 	0.3409	0.1162	0.6875	0.049
Mof_C 	C 	0.3317	0.1193	0.7483	0.04
Mof_C 	C 	0.2982	0.1454	0.7493	-0.09
Mof_H 	H 	0.2874	0.154	0.7246	-0.046
Mof_C 	C 	0.2821	0.158	0.7834	0.186
Mof_C 	C 	0.2988	0.1434	0.8217	-0.116
Mof_H 	H 	0.2869	0.151	0.847	0.046
Mof_C 	C 	0.3297	0.1187	0.8214	-0.022
Mof_H 	H 	0.3401	0.1099	0.8462	0.034
Mof_C 	C 	0.3484	0.1056	0.7864	0.008
Mof_C 	C 	0.3824	0.0808	0.7849	-0.06
Mof_H 	H 	0.3939	0.0719	0.8099	0.057
Mof_O 	O 	0.4522	0.0344	0.7156	-0.207
Mof_O 	O 	0.4517	0.034	0.7832	-0.215
Mof_C 	C 	0.78334	0.81285	0.75366	-0.103
Mof_C 	C 	0.81268	0.78303	0.75334	0.093
Mof_H 	H 	0.8312	0.7831	0.7313	-0.11
Mof_C 	C 	0.7494	0.9567	0.5611	0.142
Mof_C 	C 	0.7495	0.9305	0.6	-0.025
Mof_C 	C 	0.7122	0.9186	0.6173	0.023
Mof_H 	H 	0.6873	0.9277	0.6058	0.031
Mof_C 	C 	0.7117	0.8934	0.6498	-0.121
Mof_H 	H 	0.687	0.8843	0.6602	0.07
Mof_C 	C 	0.748	0.8805	0.6682	0.109
Mof_C 	C 	0.7495	0.855	0.7016	-0.211
Mof_H 	H 	0.7248	0.8471	0.7132	0.165
Mof_C 	C 	0.7839	0.8418	0.7186	0.119
Mof_C 	C 	0.8217	0.856	0.7014	-0.09
Mof_H 	H 	0.8467	0.8481	0.7135	0.047
Mof_C 	C 	0.8221	0.8808	0.6704	-0.016
Mof_H 	H 	0.8471	0.8892	0.6598	0.036
Mof_C 	C 	0.7861	0.8943	0.6519	-0.018
Mof_C 	C 	0.7851	0.9197	0.6176	-0.03
Mof_H 	H 	0.8101	0.9287	0.6061	0.052
Mof_O 	O 	0.7834	0.9666	0.5484	-0.182
Mof_O 	O 	0.7152	0.966	0.5479	-0.172
Mof_C 	C 	0.7509	0.9387	0.544	0.142
Mof_C 	C 	0.7505	0.8999	0.5696	0.001
Mof_C 	C 	0.7873	0.8825	0.5825	-0.018
Mof_H 	H 	0.8123	0.8935	0.573	0.044
Mof_C 	C 	0.7878	0.8508	0.6066	-0.066
Mof_H 	H 	0.8125	0.8409	0.6162	0.048
Mof_C 	C 	0.7517	0.8317	0.6193	0.039
Mof_C 	C 	0.7507	0.7982	0.6454	-0.088
Mof_H 	H 	0.7754	0.7874	0.654	-0.046
Mof_C 	C 	0.7166	0.7821	0.658	0.186
Mof_C 	C 	0.6783	0.7988	0.6434	-0.115
Mof_H 	H 	0.653	0.7869	0.651	0.046
Mof_C 	C 	0.6786	0.8297	0.6187	-0.023
Mof_H 	H 	0.6538	0.8401	0.6099	0.036
Mof_C 	C 	0.7136	0.8484	0.6056	0.011
Mof_C 	C 	0.7151	0.8824	0.5808	-0.062
Mof_H 	H 	0.6901	0.8939	0.5719	0.06
Mof_O 	O 	0.7844	0.9522	0.5344	-0.199
Mof_O 	O 	0.7168	0.9517	0.534	-0.208
Mof_C 	C 	0.28334	0.31285	0.25366	-0.104
Mof_C 	C 	0.31268	0.28303	0.25334	0.092
Mof_H 	H 	0.3312	0.2831	0.2313	-0.11
Mof_C 	C 	0.2494	0.4567	0.0611	0.141
Mof_C 	C 	0.2495	0.4305	0.1	-0.028
Mof_C 	C 	0.2122	0.4186	0.1173	0.024
Mof_H 	H 	0.1873	0.4277	0.1058	0.026
Mof_C 	C 	0.2117	0.3934	0.1498	-0.124
Mof_H 	H 	0.187	0.3843	0.1602	0.07
Mof_C 	C 	0.248	0.3805	0.1682	0.11
Mof_C 	C 	0.2495	0.355	0.2016	-0.213
Mof_H 	H 	0.2248	0.3471	0.2132	0.166
Mof_C 	C 	0.2839	0.3418	0.2186	0.119
Mof_C 	C 	0.3217	0.356	0.2014	-0.093
Mof_H 	H 	0.3467	0.3481	0.2135	0.046
Mof_C 	C 	0.3221	0.3808	0.1704	-0.014
Mof_H 	H 	0.3471	0.3892	0.1598	0.032
Mof_C 	C 	0.2861	0.3943	0.1519	-0.022
Mof_C 	C 	0.2851	0.4197	0.1176	-0.029
Mof_H 	H 	0.3101	0.4287	0.1061	0.048
Mof_O 	O 	0.2834	0.4666	0.0484	-0.191
Mof_O 	O 	0.2152	0.466	0.0479	-0.181
Mof_C 	C 	0.2509	0.4387	0.044	0.142
Mof_C 	C 	0.2505	0.3999	0.0696	-0.004
Mof_C 	C 	0.2873	0.3825	0.0825	-0.015
Mof_H 	H 	0.3123	0.3935	0.073	0.039
Mof_C 	C 	0.2878	0.3508	0.1066	-0.07
Mof_H 	H 	0.3125	0.3409	0.1162	0.049
Mof_C 	C 	0.2517	0.3317	0.1193	0.04
Mof_C 	C 	0.2507	0.2982	0.1454	-0.09
Mof_H 	H 	0.2754	0.2874	0.154	-0.046
Mof_C 	C 	0.2166	0.2821	0.158	0.186
Mof_C 	C 	0.1783	0.2988	0.1434	-0.118
Mof_H 	H 	0.153	0.2869	0.151	0.045
Mof_C 	C 	0.1786	0.3297	0.1187	-0.021
Mof_H 	H 	0.1538	0.3401	0.1099	0.031
Mof_C 	C 	0.2136	0.3484	0.1056	0.006
Mof_C 	C 	0.2151	0.3824	0.0808	-0.06
Mof_H 	H 	0.1901	0.3939	0.0719	0.055
Mof_O 	O 	0.2844	0.4522	0.0344	-0.207
Mof_O 	O 	0.2168	0.4517	0.034	-0.216
Mof_C 	C 	0.21666	0.18715	0.75366	-0.106
Mof_C 	C 	0.18732	0.21697	0.75334	0.093
Mof_H 	H 	0.1688	0.2169	0.7313	-0.112
Mof_C 	C 	0.2506	0.0433	0.5611	0.124
Mof_C 	C 	0.2505	0.0695	0.6	-0.024
Mof_C 	C 	0.2878	0.0814	0.6173	0.018
Mof_H 	H 	0.3127	0.0723	0.6058	0.028
Mof_C 	C 	0.2883	0.1066	0.6498	-0.122
Mof_H 	H 	0.313	0.1157	0.6602	0.069
Mof_C 	C 	0.252	0.1195	0.6682	0.109
Mof_C 	C 	0.2505	0.145	0.7016	-0.215
Mof_H 	H 	0.2752	0.1529	0.7132	0.168
Mof_C 	C 	0.2161	0.1582	0.7186	0.119
Mof_C 	C 	0.1783	0.144	0.7014	-0.094
Mof_H 	H 	0.1533	0.1519	0.7135	0.046
Mof_C 	C 	0.1779	0.1192	0.6704	-0.016
Mof_H 	H 	0.1529	0.1108	0.6598	0.03
Mof_C 	C 	0.2139	0.1057	0.6519	-0.021
Mof_C 	C 	0.2149	0.0803	0.6176	-0.035
Mof_H 	H 	0.1899	0.0713	0.6061	0.047
Mof_O 	O 	0.2166	0.0334	0.5484	-0.197
Mof_O 	O 	0.2848	0.034	0.5479	-0.187
Mof_C 	C 	0.2491	0.0613	0.544	0.16
Mof_C 	C 	0.2495	0.1001	0.5696	-0.009
Mof_C 	C 	0.2127	0.1175	0.5825	-0.008
Mof_H 	H 	0.1877	0.1065	0.573	0.037
Mof_C 	C 	0.2122	0.1492	0.6066	-0.073
Mof_H 	H 	0.1875	0.1591	0.6162	0.05
Mof_C 	C 	0.2483	0.1683	0.6193	0.043
Mof_C 	C 	0.2493	0.2018	0.6454	-0.09
Mof_H 	H 	0.2246	0.2126	0.654	-0.043
Mof_C 	C 	0.2834	0.2179	0.658	0.184
Mof_C 	C 	0.3217	0.2012	0.6434	-0.115
Mof_H 	H 	0.347	0.2131	0.651	0.046
Mof_C 	C 	0.3214	0.1703	0.6187	-0.02
Mof_H 	H 	0.3462	0.1599	0.6099	0.034
Mof_C 	C 	0.2864	0.1516	0.6056	0.006
Mof_C 	C 	0.2849	0.1176	0.5808	-0.054
Mof_H 	H 	0.3099	0.1061	0.5719	0.055
Mof_O 	O 	0.2156	0.0478	0.5344	-0.202
Mof_O 	O 	0.2832	0.0483	0.534	-0.208
Mof_C 	C 	0.71666	0.68715	0.25366	-0.104
Mof_C 	C 	0.68732	0.71697	0.25334	0.094
Mof_H 	H 	0.6688	0.7169	0.2313	-0.112
Mof_C 	C 	0.7506	0.5433	0.0611	0.141
Mof_C 	C 	0.7505	0.5695	0.1	-0.028
Mof_C 	C 	0.7878	0.5814	0.1173	0.023
Mof_H 	H 	0.8127	0.5723	0.1058	0.028
Mof_C 	C 	0.7883	0.6066	0.1498	-0.123
Mof_H 	H 	0.813	0.6157	0.1602	0.07
Mof_C 	C 	0.752	0.6195	0.1682	0.109
Mof_C 	C 	0.7505	0.645	0.2016	-0.21
Mof_H 	H 	0.7752	0.6529	0.2132	0.163
Mof_C 	C 	0.7161	0.6582	0.2186	0.118
Mof_C 	C 	0.6783	0.644	0.2014	-0.092
Mof_H 	H 	0.6533	0.6519	0.2135	0.046
Mof_C 	C 	0.6779	0.6192	0.1704	-0.015
Mof_H 	H 	0.6529	0.6108	0.1598	0.032
Mof_C 	C 	0.7139	0.6057	0.1519	-0.021
Mof_C 	C 	0.7149	0.5803	0.1176	-0.03
Mof_H 	H 	0.6899	0.5713	0.1061	0.048
Mof_O 	O 	0.7166	0.5334	0.0484	-0.191
Mof_O 	O 	0.7848	0.534	0.0479	-0.18
Mof_C 	C 	0.7491	0.5613	0.044	0.142
Mof_C 	C 	0.7495	0.6001	0.0696	-0.003
Mof_C 	C 	0.7127	0.6175	0.0825	-0.015
Mof_H 	H 	0.6877	0.6065	0.073	0.039
Mof_C 	C 	0.7122	0.6492	0.1066	-0.069
Mof_H 	H 	0.6875	0.6591	0.1162	0.049
Mof_C 	C 	0.7483	0.6683	0.1193	0.04
Mof_C 	C 	0.7493	0.7018	0.1454	-0.089
Mof_H 	H 	0.7246	0.7126	0.154	-0.046
Mof_C 	C 	0.7834	0.7179	0.158	0.186
Mof_C 	C 	0.8217	0.7012	0.1434	-0.116
Mof_H 	H 	0.847	0.7131	0.151	0.046
Mof_C 	C 	0.8214	0.6703	0.1187	-0.022
Mof_H 	H 	0.8462	0.6599	0.1099	0.035
Mof_C 	C 	0.7864	0.6516	0.1056	0.008
Mof_C 	C 	0.7849	0.6176	0.0808	-0.061
Mof_H 	H 	0.8099	0.6061	0.0719	0.057
Mof_O 	O 	0.7156	0.5478	0.0344	-0.207
Mof_O 	O 	0.7832	0.5483	0.034	-0.215
Mof_C 	C 	0.21666	0.81285	0.24634	-0.105
Mof_C 	C 	0.18732	0.78303	0.24666	0.093
Mof_H 	H 	0.1688	0.7831	0.2687	-0.112
Mof_C 	C 	0.2506	0.9567	0.4389	0.142
Mof_C 	C 	0.2505	0.9305	0.4	-0.025
Mof_C 	C 	0.2878	0.9186	0.3827	0.023
Mof_H 	H 	0.3127	0.9277	0.3942	0.031
Mof_C 	C 	0.2883	0.8934	0.3502	-0.122
Mof_H 	H 	0.313	0.8843	0.3398	0.07
Mof_C 	C 	0.252	0.8805	0.3318	0.11
Mof_C 	C 	0.2505	0.855	0.2984	-0.211
Mof_H 	H 	0.2752	0.8471	0.2868	0.165
Mof_C 	C 	0.2161	0.8418	0.2814	0.119
Mof_C 	C 	0.1783	0.856	0.2986	-0.092
Mof_H 	H 	0.1533	0.8481	0.2865	0.046
Mof_C 	C 	0.1779	0.8808	0.3296	-0.015
Mof_H 	H 	0.1529	0.8892	0.3402	0.033
Mof_C 	C 	0.2139	0.8943	0.3481	-0.02
Mof_C 	C 	0.2149	0.9197	0.3824	-0.03
Mof_H 	H 	0.1899	0.9287	0.3939	0.05
Mof_O 	O 	0.2166	0.9666	0.4516	-0.183
Mof_O 	O 	0.2848	0.966	0.4521	-0.172
Mof_C 	C 	0.2491	0.9387	0.456	0.143
Mof_C 	C 	0.2495	0.8999	0.4304	0
Mof_C 	C 	0.2127	0.8825	0.4175	-0.017
Mof_H 	H 	0.1877	0.8935	0.427	0.042
Mof_C 	C 	0.2122	0.8508	0.3934	-0.067
Mof_H 	H 	0.1875	0.8409	0.3838	0.048
Mof_C 	C 	0.2483	0.8317	0.3807	0.04
Mof_C 	C 	0.2493	0.7982	0.3546	-0.09
Mof_H 	H 	0.2246	0.7874	0.346	-0.042
Mof_C 	C 	0.2834	0.7821	0.342	0.184
Mof_C 	C 	0.3217	0.7988	0.3566	-0.114
Mof_H 	H 	0.347	0.7869	0.349	0.046
Mof_C 	C 	0.3214	0.8297	0.3813	-0.023
Mof_H 	H 	0.3462	0.8401	0.3901	0.036
Mof_C 	C 	0.2864	0.8484	0.3944	0.011
Mof_C 	C 	0.2849	0.8824	0.4192	-0.062
Mof_H 	H 	0.3099	0.8939	0.4281	0.06
Mof_O 	O 	0.2156	0.9522	0.4656	-0.2
Mof_O 	O 	0.2832	0.9517	0.466	-0.208
Mof_C 	C 	0.71666	0.31285	0.74634	-0.105
Mof_C 	C 	0.68732	0.28303	0.74666	0.092
Mof_H 	H 	0.6688	0.2831	0.7687	-0.11
Mof_C 	C 	0.7506	0.4567	0.9389	0.124
Mof_C 	C 	0.7505	0.4305	0.9	-0.02
Mof_C 	C 	0.7878	0.4186	0.8827	0.017
Mof_H 	H 	0.8127	0.4277	0.8942	0.032
Mof_C 	C 	0.7883	0.3934	0.8502	-0.12
Mof_H 	H 	0.813	0.3843	0.8398	0.069
Mof_C 	C 	0.752	0.3805	0.8318	0.108
Mof_C 	C 	0.7505	0.355	0.7984	-0.214
Mof_H 	H 	0.7752	0.3471	0.7868	0.169
Mof_C 	C 	0.7161	0.3418	0.7814	0.119
Mof_C 	C 	0.6783	0.356	0.7986	-0.092
Mof_H 	H 	0.6533	0.3481	0.7865	0.046
Mof_C 	C 	0.6779	0.3808	0.8296	-0.017
Mof_H 	H 	0.6529	0.3892	0.8402	0.034
Mof_C 	C 	0.7139	0.3943	0.8481	-0.018
Mof_C 	C 	0.7149	0.4197	0.8824	-0.036
Mof_H 	H 	0.6899	0.4287	0.8939	0.051
Mof_O 	O 	0.7166	0.4666	0.9516	-0.189
Mof_O 	O 	0.7848	0.466	0.9521	-0.178
Mof_C 	C 	0.7491	0.4387	0.956	0.16
Mof_C 	C 	0.7495	0.3999	0.9304	-0.004
Mof_C 	C 	0.7127	0.3825	0.9175	-0.011
Mof_H 	H 	0.6877	0.3935	0.927	0.042
Mof_C 	C 	0.7122	0.3508	0.8934	-0.069
Mof_H 	H 	0.6875	0.3409	0.8838	0.05
Mof_C 	C 	0.7483	0.3317	0.8807	0.042
Mof_C 	C 	0.7493	0.2982	0.8546	-0.089
Mof_H 	H 	0.7246	0.2874	0.846	-0.043
Mof_C 	C 	0.7834	0.2821	0.842	0.184
Mof_C 	C 	0.8217	0.2988	0.8566	-0.113
Mof_H 	H 	0.847	0.2869	0.849	0.046
Mof_C 	C 	0.8214	0.3297	0.8813	-0.022
Mof_H 	H 	0.8462	0.3401	0.8901	0.038
Mof_C 	C 	0.7864	0.3484	0.8944	0.01
Mof_C 	C 	0.7849	0.3824	0.9192	-0.056
Mof_H 	H 	0.8099	0.3939	0.9281	0.06
Mof_O 	O 	0.7156	0.4522	0.9656	-0.193
Mof_O 	O 	0.7832	0.4517	0.966	-0.201
Mof_C 	C 	0.78334	0.18715	0.24634	-0.106
Mof_C 	C 	0.81268	0.21697	0.24666	0.093
Mof_H 	H 	0.8312	0.2169	0.2687	-0.11
Mof_C 	C 	0.7494	0.0433	0.4389	0.123
Mof_C 	C 	0.7495	0.0695	0.4	-0.023
Mof_C 	C 	0.7122	0.0814	0.3827	0.018
Mof_H 	H 	0.6873	0.0723	0.3942	0.028
Mof_C 	C 	0.7117	0.1066	0.3502	-0.122
Mof_H 	H 	0.687	0.1157	0.3398	0.069
Mof_C 	C 	0.748	0.1195	0.3318	0.109
Mof_C 	C 	0.7495	0.145	0.2984	-0.216
Mof_H 	H 	0.7248	0.1529	0.2868	0.169
Mof_C 	C 	0.7839	0.1582	0.2814	0.12
Mof_C 	C 	0.8217	0.144	0.2986	-0.093
Mof_H 	H 	0.8467	0.1519	0.2865	0.046
Mof_C 	C 	0.8221	0.1192	0.3296	-0.016
Mof_H 	H 	0.8471	0.1108	0.3402	0.032
Mof_C 	C 	0.7861	0.1057	0.3481	-0.021
Mof_C 	C 	0.7851	0.0803	0.3824	-0.035
Mof_H 	H 	0.8101	0.0713	0.3939	0.049
Mof_O 	O 	0.7834	0.0334	0.4516	-0.196
Mof_O 	O 	0.7152	0.034	0.4521	-0.187
Mof_C 	C 	0.7509	0.0613	0.456	0.16
Mof_C 	C 	0.7505	0.1001	0.4304	-0.009
Mof_C 	C 	0.7873	0.1175	0.4175	-0.009
Mof_H 	H 	0.8123	0.1065	0.427	0.039
Mof_C 	C 	0.7878	0.1492	0.3934	-0.071
Mof_H 	H 	0.8125	0.1591	0.3838	0.05
Mof_C 	C 	0.7517	0.1683	0.3807	0.042
Mof_C 	C 	0.7507	0.2018	0.3546	-0.087
Mof_H 	H 	0.7754	0.2126	0.346	-0.049
Mof_C 	C 	0.7166	0.2179	0.342	0.187
Mof_C 	C 	0.6783	0.2012	0.3566	-0.117
Mof_H 	H 	0.653	0.2131	0.349	0.046
Mof_C 	C 	0.6786	0.1703	0.3813	-0.02
Mof_H 	H 	0.6538	0.1599	0.3901	0.034
Mof_C 	C 	0.7136	0.1516	0.3944	0.006
Mof_C 	C 	0.7151	0.1176	0.4192	-0.054
Mof_H 	H 	0.6901	0.1061	0.4281	0.055
Mof_O 	O 	0.7844	0.0478	0.4656	-0.201
Mof_O 	O 	0.7168	0.0483	0.466	-0.209
Mof_C 	C 	0.28334	0.68715	0.74634	-0.106
Mof_C 	C 	0.31268	0.71697	0.74666	0.094
Mof_H 	H 	0.3312	0.7169	0.7687	-0.113
Mof_C 	C 	0.2494	0.5433	0.9389	0.124
Mof_C 	C 	0.2495	0.5695	0.9	-0.021
Mof_C 	C 	0.2122	0.5814	0.8827	0.018
Mof_H 	H 	0.1873	0.5723	0.8942	0.031
Mof_C 	C 	0.2117	0.6066	0.8502	-0.121
Mof_H 	H 	0.187	0.6157	0.8398	0.069
Mof_C 	C 	0.248	0.6195	0.8318	0.109
Mof_C 	C 	0.2495	0.645	0.7984	-0.216
Mof_H 	H 	0.2248	0.6529	0.7868	0.171
Mof_C 	C 	0.2839	0.6582	0.7814	0.12
Mof_C 	C 	0.3217	0.644	0.7986	-0.092
Mof_H 	H 	0.3467	0.6519	0.7865	0.046
Mof_C 	C 	0.3221	0.6192	0.8296	-0.016
Mof_H 	H 	0.3471	0.6108	0.8402	0.033
Mof_C 	C 	0.2861	0.6057	0.8481	-0.019
Mof_C 	C 	0.2851	0.5803	0.8824	-0.035
Mof_H 	H 	0.3101	0.5713	0.8939	0.051
Mof_O 	O 	0.2834	0.5334	0.9516	-0.189
Mof_O 	O 	0.2152	0.534	0.9521	-0.178
Mof_C 	C 	0.2509	0.5613	0.956	0.16
Mof_C 	C 	0.2505	0.6001	0.9304	-0.005
Mof_C 	C 	0.2873	0.6175	0.9175	-0.011
Mof_H 	H 	0.3123	0.6065	0.927	0.042
Mof_C 	C 	0.2878	0.6492	0.8934	-0.069
Mof_H 	H 	0.3125	0.6591	0.8838	0.05
Mof_C 	C 	0.2517	0.6683	0.8807	0.042
Mof_C 	C 	0.2507	0.7018	0.8546	-0.089
Mof_H 	H 	0.2754	0.7126	0.846	-0.044
Mof_C 	C 	0.2166	0.7179	0.842	0.185
Mof_C 	C 	0.1783	0.7012	0.8566	-0.114
Mof_H 	H 	0.153	0.7131	0.849	0.046
Mof_C 	C 	0.1786	0.6703	0.8813	-0.021
Mof_H 	H 	0.1538	0.6599	0.8901	0.036
Mof_C 	C 	0.2136	0.6516	0.8944	0.009
Mof_C 	C 	0.2151	0.6176	0.9192	-0.056
Mof_H 	H 	0.1901	0.6061	0.9281	0.059
Mof_O 	O 	0.2844	0.5478	0.9656	-0.193
Mof_O 	O 	0.2168	0.5483	0.966	-0.201
Mof_C 	C 	0.75366	0.78334	0.81285	-0.103
Mof_C 	C 	0.75334	0.81268	0.78303	0.093
Mof_H 	H 	0.7313	0.8312	0.7831	-0.11
Mof_C 	C 	0.5611	0.7494	0.9567	0.142
Mof_C 	C 	0.6	0.7495	0.9305	-0.025
Mof_C 	C 	0.6173	0.7122	0.9186	0.023
Mof_H 	H 	0.6058	0.6873	0.9277	0.031
Mof_C 	C 	0.6498	0.7117	0.8934	-0.121
Mof_H 	H 	0.6602	0.687	0.8843	0.07
Mof_C 	C 	0.6682	0.748	0.8805	0.109
Mof_C 	C 	0.7016	0.7495	0.855	-0.211
Mof_H 	H 	0.7132	0.7248	0.8471	0.165
Mof_C 	C 	0.7186	0.7839	0.8418	0.119
Mof_C 	C 	0.7014	0.8217	0.856	-0.09
Mof_H 	H 	0.7135	0.8467	0.8481	0.047
Mof_C 	C 	0.6704	0.8221	0.8808	-0.016
Mof_H 	H 	0.6598	0.8471	0.8892	0.036
Mof_C 	C 	0.6519	0.7861	0.8943	-0.018
Mof_C 	C 	0.6176	0.7851	0.9197	-0.03
Mof_H 	H 	0.6061	0.8101	0.9287	0.052
Mof_O 	O 	0.5484	0.7834	0.9666	-0.182
Mof_O 	O 	0.5479	0.7152	0.966	-0.172
Mof_C 	C 	0.544	0.7509	0.9387	0.142
Mof_C 	C 	0.5696	0.7505	0.8999	0.001
Mof_C 	C 	0.5825	0.7873	0.8825	-0.018
Mof_H 	H 	0.573	0.8123	0.8935	0.044
Mof_C 	C 	0.6066	0.7878	0.8508	-0.066
Mof_H 	H 	0.6162	0.8125	0.8409	0.048
Mof_C 	C 	0.6193	0.7517	0.8317	0.039
Mof_C 	C 	0.6454	0.7507	0.7982	-0.088
Mof_H 	H 	0.654	0.7754	0.7874	-0.046
Mof_C 	C 	0.658	0.7166	0.7821	0.186
Mof_C 	C 	0.6434	0.6783	0.7988	-0.115
Mof_H 	H 	0.651	0.653	0.7869	0.046
Mof_C 	C 	0.6187	0.6786	0.8297	-0.023
Mof_H 	H 	0.6099	0.6538	0.8401	0.036
Mof_C 	C 	0.6056	0.7136	0.8484	0.011
Mof_C 	C 	0.5808	0.7151	0.8824	-0.062
Mof_H 	H 	0.5719	0.6901	0.8939	0.06
Mof_O 	O 	0.5344	0.7844	0.9522	-0.199
Mof_O 	O 	0.534	0.7168	0.9517	-0.208
Mof_C 	C 	0.25366	0.28334	0.31285	-0.104
Mof_C 	C 	0.25334	0.31268	0.28303	0.092
Mof_H 	H 	0.2313	0.3312	0.2831	-0.11
Mof_C 	C 	0.0611	0.2494	0.4567	0.141
Mof_C 	C 	0.1	0.2495	0.4305	-0.028
Mof_C 	C 	0.1173	0.2122	0.4186	0.024
Mof_H 	H 	0.1058	0.1873	0.4277	0.026
Mof_C 	C 	0.1498	0.2117	0.3934	-0.124
Mof_H 	H 	0.1602	0.187	0.3843	0.07
Mof_C 	C 	0.1682	0.248	0.3805	0.11
Mof_C 	C 	0.2016	0.2495	0.355	-0.213
Mof_H 	H 	0.2132	0.2248	0.3471	0.166
Mof_C 	C 	0.2186	0.2839	0.3418	0.119
Mof_C 	C 	0.2014	0.3217	0.356	-0.093
Mof_H 	H 	0.2135	0.3467	0.3481	0.046
Mof_C 	C 	0.1704	0.3221	0.3808	-0.014
Mof_H 	H 	0.1598	0.3471	0.3892	0.032
Mof_C 	C 	0.1519	0.2861	0.3943	-0.022
Mof_C 	C 	0.1176	0.2851	0.4197	-0.029
Mof_H 	H 	0.1061	0.3101	0.4287	0.048
Mof_O 	O 	0.0484	0.2834	0.4666	-0.191
Mof_O 	O 	0.0479	0.2152	0.466	-0.181
Mof_C 	C 	0.044	0.2509	0.4387	0.142
Mof_C 	C 	0.0696	0.2505	0.3999	-0.004
Mof_C 	C 	0.0825	0.2873	0.3825	-0.015
Mof_H 	H 	0.073	0.3123	0.3935	0.039
Mof_C 	C 	0.1066	0.2878	0.3508	-0.07
Mof_H 	H 	0.1162	0.3125	0.3409	0.049
Mof_C 	C 	0.1193	0.2517	0.3317	0.04
Mof_C 	C 	0.1454	0.2507	0.2982	-0.09
Mof_H 	H 	0.154	0.2754	0.2874	-0.046
Mof_C 	C 	0.158	0.2166	0.2821	0.186
Mof_C 	C 	0.1434	0.1783	0.2988	-0.118
Mof_H 	H 	0.151	0.153	0.2869	0.045
Mof_C 	C 	0.1187	0.1786	0.3297	-0.021
Mof_H 	H 	0.1099	0.1538	0.3401	0.031
Mof_C 	C 	0.1056	0.2136	0.3484	0.006
Mof_C 	C 	0.0808	0.2151	0.3824	-0.06
Mof_H 	H 	0.0719	0.1901	0.3939	0.055
Mof_O 	O 	0.0344	0.2844	0.4522	-0.207
Mof_O 	O 	0.034	0.2168	0.4517	-0.216
Mof_C 	C 	0.75366	0.21666	0.18715	-0.106
Mof_C 	C 	0.75334	0.18732	0.21697	0.093
Mof_H 	H 	0.7313	0.1688	0.2169	-0.112
Mof_C 	C 	0.5611	0.2506	0.0433	0.124
Mof_C 	C 	0.6	0.2505	0.0695	-0.024
Mof_C 	C 	0.6173	0.2878	0.0814	0.018
Mof_H 	H 	0.6058	0.3127	0.0723	0.028
Mof_C 	C 	0.6498	0.2883	0.1066	-0.122
Mof_H 	H 	0.6602	0.313	0.1157	0.069
Mof_C 	C 	0.6682	0.252	0.1195	0.109
Mof_C 	C 	0.7016	0.2505	0.145	-0.215
Mof_H 	H 	0.7132	0.2752	0.1529	0.168
Mof_C 	C 	0.7186	0.2161	0.1582	0.119
Mof_C 	C 	0.7014	0.1783	0.144	-0.094
Mof_H 	H 	0.7135	0.1533	0.1519	0.046
Mof_C 	C 	0.6704	0.1779	0.1192	-0.016
Mof_H 	H 	0.6598	0.1529	0.1108	0.03
Mof_C 	C 	0.6519	0.2139	0.1057	-0.021
Mof_C 	C 	0.6176	0.2149	0.0803	-0.035
Mof_H 	H 	0.6061	0.1899	0.0713	0.047
Mof_O 	O 	0.5484	0.2166	0.0334	-0.197
Mof_O 	O 	0.5479	0.2848	0.034	-0.187
Mof_C 	C 	0.544	0.2491	0.0613	0.16
Mof_C 	C 	0.5696	0.2495	0.1001	-0.009
Mof_C 	C 	0.5825	0.2127	0.1175	-0.008
Mof_H 	H 	0.573	0.1877	0.1065	0.037
Mof_C 	C 	0.6066	0.2122	0.1492	-0.073
Mof_H 	H 	0.6162	0.1875	0.1591	0.05
Mof_C 	C 	0.6193	0.2483	0.1683	0.043
Mof_C 	C 	0.6454	0.2493	0.2018	-0.09
Mof_H 	H 	0.654	0.2246	0.2126	-0.043
Mof_C 	C 	0.658	0.2834	0.2179	0.184
Mof_C 	C 	0.6434	0.3217	0.2012	-0.115
Mof_H 	H 	0.651	0.347	0.2131	0.046
Mof_C 	C 	0.6187	0.3214	0.1703	-0.02
Mof_H 	H 	0.6099	0.3462	0.1599	0.034
Mof_C 	C 	0.6056	0.2864	0.1516	0.006
Mof_C 	C 	0.5808	0.2849	0.1176	-0.054
Mof_H 	H 	0.5719	0.3099	0.1061	0.055
Mof_O 	O 	0.5344	0.2156	0.0478	-0.202
Mof_O 	O 	0.534	0.2832	0.0483	-0.208
Mof_C 	C 	0.25366	0.71666	0.68715	-0.104
Mof_C 	C 	0.25334	0.68732	0.71697	0.094
Mof_H 	H 	0.2313	0.6688	0.7169	-0.112
Mof_C 	C 	0.0611	0.7506	0.5433	0.141
Mof_C 	C 	0.1	0.7505	0.5695	-0.028
Mof_C 	C 	0.1173	0.7878	0.5814	0.023
Mof_H 	H 	0.1058	0.8127	0.5723	0.028
Mof_C 	C 	0.1498	0.7883	0.6066	-0.123
Mof_H 	H 	0.1602	0.813	0.6157	0.07
Mof_C 	C 	0.1682	0.752	0.6195	0.109
Mof_C 	C 	0.2016	0.7505	0.645	-0.21
Mof_H 	H 	0.2132	0.7752	0.6529	0.163
Mof_C 	C 	0.2186	0.7161	0.6582	0.118
Mof_C 	C 	0.2014	0.6783	0.644	-0.092
Mof_H 	H 	0.2135	0.6533	0.6519	0.046
Mof_C 	C 	0.1704	0.6779	0.6192	-0.015
Mof_H 	H 	0.1598	0.6529	0.6108	0.032
Mof_C 	C 	0.1519	0.7139	0.6057	-0.021
Mof_C 	C 	0.1176	0.7149	0.5803	-0.03
Mof_H 	H 	0.1061	0.6899	0.5713	0.048
Mof_O 	O 	0.0484	0.7166	0.5334	-0.191
Mof_O 	O 	0.0479	0.7848	0.534	-0.18
Mof_C 	C 	0.044	0.7491	0.5613	0.142
Mof_C 	C 	0.0696	0.7495	0.6001	-0.003
Mof_C 	C 	0.0825	0.7127	0.6175	-0.015
Mof_H 	H 	0.073	0.6877	0.6065	0.039
Mof_C 	C 	0.1066	0.7122	0.6492	-0.069
Mof_H 	H 	0.1162	0.6875	0.6591	0.049
Mof_C 	C 	0.1193	0.7483	0.6683	0.04
Mof_C 	C 	0.1454	0.7493	0.7018	-0.089
Mof_H 	H 	0.154	0.7246	0.7126	-0.046
Mof_C 	C 	0.158	0.7834	0.7179	0.186
Mof_C 	C 	0.1434	0.8217	0.7012	-0.116
Mof_H 	H 	0.151	0.847	0.7131	0.046
Mof_C 	C 	0.1187	0.8214	0.6703	-0.022
Mof_H 	H 	0.1099	0.8462	0.6599	0.035
Mof_C 	C 	0.1056	0.7864	0.6516	0.008
Mof_C 	C 	0.0808	0.7849	0.6176	-0.061
Mof_H 	H 	0.0719	0.8099	0.6061	0.057
Mof_O 	O 	0.0344	0.7156	0.5478	-0.207
Mof_O 	O 	0.034	0.7832	0.5483	-0.215
Mof_C 	C 	0.24634	0.21666	0.81285	-0.105
Mof_C 	C 	0.24666	0.18732	0.78303	0.093
Mof_H 	H 	0.2687	0.1688	0.7831	-0.112
Mof_C 	C 	0.4389	0.2506	0.9567	0.142
Mof_C 	C 	0.4	0.2505	0.9305	-0.025
Mof_C 	C 	0.3827	0.2878	0.9186	0.023
Mof_H 	H 	0.3942	0.3127	0.9277	0.031
Mof_C 	C 	0.3502	0.2883	0.8934	-0.122
Mof_H 	H 	0.3398	0.313	0.8843	0.07
Mof_C 	C 	0.3318	0.252	0.8805	0.11
Mof_C 	C 	0.2984	0.2505	0.855	-0.211
Mof_H 	H 	0.2868	0.2752	0.8471	0.165
Mof_C 	C 	0.2814	0.2161	0.8418	0.119
Mof_C 	C 	0.2986	0.1783	0.856	-0.092
Mof_H 	H 	0.2865	0.1533	0.8481	0.046
Mof_C 	C 	0.3296	0.1779	0.8808	-0.015
Mof_H 	H 	0.3402	0.1529	0.8892	0.033
Mof_C 	C 	0.3481	0.2139	0.8943	-0.02
Mof_C 	C 	0.3824	0.2149	0.9197	-0.03
Mof_H 	H 	0.3939	0.1899	0.9287	0.05
Mof_O 	O 	0.4516	0.2166	0.9666	-0.183
Mof_O 	O 	0.4521	0.2848	0.966	-0.172
Mof_C 	C 	0.456	0.2491	0.9387	0.143
Mof_C 	C 	0.4304	0.2495	0.8999	0
Mof_C 	C 	0.4175	0.2127	0.8825	-0.017
Mof_H 	H 	0.427	0.1877	0.8935	0.042
Mof_C 	C 	0.3934	0.2122	0.8508	-0.067
Mof_H 	H 	0.3838	0.1875	0.8409	0.048
Mof_C 	C 	0.3807	0.2483	0.8317	0.04
Mof_C 	C 	0.3546	0.2493	0.7982	-0.09
Mof_H 	H 	0.346	0.2246	0.7874	-0.042
Mof_C 	C 	0.342	0.2834	0.7821	0.184
Mof_C 	C 	0.3566	0.3217	0.7988	-0.114
Mof_H 	H 	0.349	0.347	0.7869	0.046
Mof_C 	C 	0.3813	0.3214	0.8297	-0.023
Mof_H 	H 	0.3901	0.3462	0.8401	0.036
Mof_C 	C 	0.3944	0.2864	0.8484	0.011
Mof_C 	C 	0.4192	0.2849	0.8824	-0.062
Mof_H 	H 	0.4281	0.3099	0.8939	0.06
Mof_O 	O 	0.4656	0.2156	0.9522	-0.2
Mof_O 	O 	0.466	0.2832	0.9517	-0.208
Mof_C 	C 	0.74634	0.71666	0.31285	-0.105
Mof_C 	C 	0.74666	0.68732	0.28303	0.092
Mof_H 	H 	0.7687	0.6688	0.2831	-0.11
Mof_C 	C 	0.9389	0.7506	0.4567	0.124
Mof_C 	C 	0.9	0.7505	0.4305	-0.02
Mof_C 	C 	0.8827	0.7878	0.4186	0.017
Mof_H 	H 	0.8942	0.8127	0.4277	0.032
Mof_C 	C 	0.8502	0.7883	0.3934	-0.12
Mof_H 	H 	0.8398	0.813	0.3843	0.069
Mof_C 	C 	0.8318	0.752	0.3805	0.108
Mof_C 	C 	0.7984	0.7505	0.355	-0.214
Mof_H 	H 	0.7868	0.7752	0.3471	0.169
Mof_C 	C 	0.7814	0.7161	0.3418	0.119
Mof_C 	C 	0.7986	0.6783	0.356	-0.092
Mof_H 	H 	0.7865	0.6533	0.3481	0.046
Mof_C 	C 	0.8296	0.6779	0.3808	-0.017
Mof_H 	H 	0.8402	0.6529	0.3892	0.034
Mof_C 	C 	0.8481	0.7139	0.3943	-0.018
Mof_C 	C 	0.8824	0.7149	0.4197	-0.036
Mof_H 	H 	0.8939	0.6899	0.4287	0.051
Mof_O 	O 	0.9516	0.7166	0.4666	-0.189
Mof_O 	O 	0.9521	0.7848	0.466	-0.178
Mof_C 	C 	0.956	0.7491	0.4387	0.16
Mof_C 	C 	0.9304	0.7495	0.3999	-0.004
Mof_C 	C 	0.9175	0.7127	0.3825	-0.011
Mof_H 	H 	0.927	0.6877	0.3935	0.042
Mof_C 	C 	0.8934	0.7122	0.3508	-0.069
Mof_H 	H 	0.8838	0.6875	0.3409	0.05
Mof_C 	C 	0.8807	0.7483	0.3317	0.042
Mof_C 	C 	0.8546	0.7493	0.2982	-0.089
Mof_H 	H 	0.846	0.7246	0.2874	-0.043
Mof_C 	C 	0.842	0.7834	0.2821	0.184
Mof_C 	C 	0.8566	0.8217	0.2988	-0.113
Mof_H 	H 	0.849	0.847	0.2869	0.046
Mof_C 	C 	0.8813	0.8214	0.3297	-0.022
Mof_H 	H 	0.8901	0.8462	0.3401	0.038
Mof_C 	C 	0.8944	0.7864	0.3484	0.01
Mof_C 	C 	0.9192	0.7849	0.3824	-0.056
Mof_H 	H 	0.9281	0.8099	0.3939	0.06
Mof_O 	O 	0.9656	0.7156	0.4522	-0.193
Mof_O 	O 	0.966	0.7832	0.4517	-0.201
Mof_C 	C 	0.24634	0.78334	0.18715	-0.106
Mof_C 	C 	0.24666	0.81268	0.21697	0.093
Mof_H 	H 	0.2687	0.8312	0.2169	-0.11
Mof_C 	C 	0.4389	0.7494	0.0433	0.123
Mof_C 	C 	0.4	0.7495	0.0695	-0.023
Mof_C 	C 	0.3827	0.7122	0.0814	0.018
Mof_H 	H 	0.3942	0.6873	0.0723	0.028
Mof_C 	C 	0.3502	0.7117	0.1066	-0.122
Mof_H 	H 	0.3398	0.687	0.1157	0.069
Mof_C 	C 	0.3318	0.748	0.1195	0.109
Mof_C 	C 	0.2984	0.7495	0.145	-0.216
Mof_H 	H 	0.2868	0.7248	0.1529	0.169
Mof_C 	C 	0.2814	0.7839	0.1582	0.12
Mof_C 	C 	0.2986	0.8217	0.144	-0.093
Mof_H 	H 	0.2865	0.8467	0.1519	0.046
Mof_C 	C 	0.3296	0.8221	0.1192	-0.016
Mof_H 	H 	0.3402	0.8471	0.1108	0.032
Mof_C 	C 	0.3481	0.7861	0.1057	-0.021
Mof_C 	C 	0.3824	0.7851	0.0803	-0.035
Mof_H 	H 	0.3939	0.8101	0.0713	0.049
Mof_O 	O 	0.4516	0.7834	0.0334	-0.196
Mof_O 	O 	0.4521	0.7152	0.034	-0.187
Mof_C 	C 	0.456	0.7509	0.0613	0.16
Mof_C 	C 	0.4304	0.7505	0.1001	-0.009
Mof_C 	C 	0.4175	0.7873	0.1175	-0.009
Mof_H 	H 	0.427	0.8123	0.1065	0.039
Mof_C 	C 	0.3934	0.7878	0.1492	-0.071
Mof_H 	H 	0.3838	0.8125	0.1591	0.05
Mof_C 	C 	0.3807	0.7517	0.1683	0.042
Mof_C 	C 	0.3546	0.7507	0.2018	-0.087
Mof_H 	H 	0.346	0.7754	0.2126	-0.049
Mof_C 	C 	0.342	0.7166	0.2179	0.187
Mof_C 	C 	0.3566	0.6783	0.2012	-0.117
Mof_H 	H 	0.349	0.653	0.2131	0.046
Mof_C 	C 	0.3813	0.6786	0.1703	-0.02
Mof_H 	H 	0.3901	0.6538	0.1599	0.034
Mof_C 	C 	0.3944	0.7136	0.1516	0.006
Mof_C 	C 	0.4192	0.7151	0.1176	-0.054
Mof_H 	H 	0.4281	0.6901	0.1061	0.055
Mof_O 	O 	0.4656	0.7844	0.0478	-0.201
Mof_O 	O 	0.466	0.7168	0.0483	-0.209
Mof_C 	C 	0.74634	0.28334	0.68715	-0.106
Mof_C 	C 	0.74666	0.31268	0.71697	0.094
Mof_H 	H 	0.7687	0.3312	0.7169	-0.113
Mof_C 	C 	0.9389	0.2494	0.5433	0.124
Mof_C 	C 	0.9	0.2495	0.5695	-0.021
Mof_C 	C 	0.8827	0.2122	0.5814	0.018
Mof_H 	H 	0.8942	0.1873	0.5723	0.031
Mof_C 	C 	0.8502	0.2117	0.6066	-0.121
Mof_H 	H 	0.8398	0.187	0.6157	0.069
Mof_C 	C 	0.8318	0.248	0.6195	0.109
Mof_C 	C 	0.7984	0.2495	0.645	-0.216
Mof_H 	H 	0.7868	0.2248	0.6529	0.171
Mof_C 	C 	0.7814	0.2839	0.6582	0.12
Mof_C 	C 	0.7986	0.3217	0.644	-0.092
Mof_H 	H 	0.7865	0.3467	0.6519	0.046
Mof_C 	C 	0.8296	0.3221	0.6192	-0.016
Mof_H 	H 	0.8402	0.3471	0.6108	0.033
Mof_C 	C 	0.8481	0.2861	0.6057	-0.019
Mof_C 	C 	0.8824	0.2851	0.5803	-0.035
Mof_H 	H 	0.8939	0.3101	0.5713	0.051
Mof_O 	O 	0.9516	0.2834	0.5334	-0.189
Mof_O 	O 	0.9521	0.2152	0.534	-0.178
Mof_C 	C 	0.956	0.2509	0.5613	0.16
Mof_C 	C 	0.9304	0.2505	0.6001	-0.005
Mof_C 	C 	0.9175	0.2873	0.6175	-0.011
Mof_H 	H 	0.927	0.3123	0.6065	0.042
Mof_C 	C 	0.8934	0.2878	0.6492	-0.069
Mof_H 	H 	0.8838	0.3125	0.6591	0.05
Mof_C 	C 	0.8807	0.2517	0.6683	0.042
Mof_C 	C 	0.8546	0.2507	0.7018	-0.089
Mof_H 	H 	0.846	0.2754	0.7126	-0.044
Mof_C 	C 	0.842	0.2166	0.7179	0.185
Mof_C 	C 	0.8566	0.1783	0.7012	-0.114
Mof_H 	H 	0.849	0.153	0.7131	0.046
Mof_C 	C 	0.8813	0.1786	0.6703	-0.021
Mof_H 	H 	0.8901	0.1538	0.6599	0.036
Mof_C 	C 	0.8944	0.2136	0.6516	0.009
Mof_C 	C 	0.9192	0.2151	0.6176	-0.056
Mof_H 	H 	0.9281	0.1901	0.6061	0.059
Mof_O 	O 	0.9656	0.2844	0.5478	-0.193
Mof_O 	O 	0.966	0.2168	0.5483	-0.201
Mof_C 	C 	0.81285	0.75366	0.78334	-0.103
Mof_C 	C 	0.78303	0.75334	0.81268	0.093
Mof_H 	H 	0.7831	0.7313	0.8312	-0.11
Mof_C 	C 	0.9567	0.5611	0.7494	0.142
Mof_C 	C 	0.9305	0.6	0.7495	-0.025
Mof_C 	C 	0.9186	0.6173	0.7122	0.023
Mof_H 	H 	0.9277	0.6058	0.6873	0.031
Mof_C 	C 	0.8934	0.6498	0.7117	-0.121
Mof_H 	H 	0.8843	0.6602	0.687	0.07
Mof_C 	C 	0.8805	0.6682	0.748	0.109
Mof_C 	C 	0.855	0.7016	0.7495	-0.211
Mof_H 	H 	0.8471	0.7132	0.7248	0.165
Mof_C 	C 	0.8418	0.7186	0.7839	0.119
Mof_C 	C 	0.856	0.7014	0.8217	-0.09
Mof_H 	H 	0.8481	0.7135	0.8467	0.047
Mof_C 	C 	0.8808	0.6704	0.8221	-0.016
Mof_H 	H 	0.8892	0.6598	0.8471	0.036
Mof_C 	C 	0.8943	0.6519	0.7861	-0.018
Mof_C 	C 	0.9197	0.6176	0.7851	-0.03
Mof_H 	H 	0.9287	0.6061	0.8101	0.052
Mof_O 	O 	0.9666	0.5484	0.7834	-0.182
Mof_O 	O 	0.966	0.5479	0.7152	-0.172
Mof_C 	C 	0.9387	0.544	0.7509	0.142
Mof_C 	C 	0.8999	0.5696	0.7505	0.001
Mof_C 	C 	0.8825	0.5825	0.7873	-0.018
Mof_H 	H 	0.8935	0.573	0.8123	0.044
Mof_C 	C 	0.8508	0.6066	0.7878	-0.066
Mof_H 	H 	0.8409	0.6162	0.8125	0.048
Mof_C 	C 	0.8317	0.6193	0.7517	0.039
Mof_C 	C 	0.7982	0.6454	0.7507	-0.088
Mof_H 	H 	0.7874	0.654	0.7754	-0.046
Mof_C 	C 	0.7821	0.658	0.7166	0.186
Mof_C 	C 	0.7988	0.6434	0.6783	-0.115
Mof_H 	H 	0.7869	0.651	0.653	0.046
Mof_C 	C 	0.8297	0.6187	0.6786	-0.023
Mof_H 	H 	0.8401	0.6099	0.6538	0.036
Mof_C 	C 	0.8484	0.6056	0.7136	0.011
Mof_C 	C 	0.8824	0.5808	0.7151	-0.062
Mof_H 	H 	0.8939	0.5719	0.6901	0.06
Mof_O 	O 	0.9522	0.5344	0.7844	-0.199
Mof_O 	O 	0.9517	0.534	0.7168	-0.208
Mof_C 	C 	0.31285	0.25366	0.28334	-0.104
Mof_C 	C 	0.28303	0.25334	0.31268	0.092
Mof_H 	H 	0.2831	0.2313	0.3312	-0.11
Mof_C 	C 	0.4567	0.0611	0.2494	0.141
Mof_C 	C 	0.4305	0.1	0.2495	-0.028
Mof_C 	C 	0.4186	0.1173	0.2122	0.024
Mof_H 	H 	0.4277	0.1058	0.1873	0.026
Mof_C 	C 	0.3934	0.1498	0.2117	-0.124
Mof_H 	H 	0.3843	0.1602	0.187	0.07
Mof_C 	C 	0.3805	0.1682	0.248	0.11
Mof_C 	C 	0.355	0.2016	0.2495	-0.213
Mof_H 	H 	0.3471	0.2132	0.2248	0.166
Mof_C 	C 	0.3418	0.2186	0.2839	0.119
Mof_C 	C 	0.356	0.2014	0.3217	-0.093
Mof_H 	H 	0.3481	0.2135	0.3467	0.046
Mof_C 	C 	0.3808	0.1704	0.3221	-0.014
Mof_H 	H 	0.3892	0.1598	0.3471	0.032
Mof_C 	C 	0.3943	0.1519	0.2861	-0.022
Mof_C 	C 	0.4197	0.1176	0.2851	-0.029
Mof_H 	H 	0.4287	0.1061	0.3101	0.048
Mof_O 	O 	0.4666	0.0484	0.2834	-0.191
Mof_O 	O 	0.466	0.0479	0.2152	-0.181
Mof_C 	C 	0.4387	0.044	0.2509	0.142
Mof_C 	C 	0.3999	0.0696	0.2505	-0.004
Mof_C 	C 	0.3825	0.0825	0.2873	-0.015
Mof_H 	H 	0.3935	0.073	0.3123	0.039
Mof_C 	C 	0.3508	0.1066	0.2878	-0.07
Mof_H 	H 	0.3409	0.1162	0.3125	0.049
Mof_C 	C 	0.3317	0.1193	0.2517	0.04
Mof_C 	C 	0.2982	0.1454	0.2507	-0.09
Mof_H 	H 	0.2874	0.154	0.2754	-0.046
Mof_C 	C 	0.2821	0.158	0.2166	0.186
Mof_C 	C 	0.2988	0.1434	0.1783	-0.118
Mof_H 	H 	0.2869	0.151	0.153	0.045
Mof_C 	C 	0.3297	0.1187	0.1786	-0.021
Mof_H 	H 	0.3401	0.1099	0.1538	0.031
Mof_C 	C 	0.3484	0.1056	0.2136	0.006
Mof_C 	C 	0.3824	0.0808	0.2151	-0.06
Mof_H 	H 	0.3939	0.0719	0.1901	0.055
Mof_O 	O 	0.4522	0.0344	0.2844	-0.207
Mof_O 	O 	0.4517	0.034	0.2168	-0.216
Mof_C 	C 	0.18715	0.75366	0.21666	-0.106
Mof_C 	C 	0.21697	0.75334	0.18732	0.093
Mof_H 	H 	0.2169	0.7313	0.1688	-0.112
Mof_C 	C 	0.0433	0.5611	0.2506	0.124
Mof_C 	C 	0.0695	0.6	0.2505	-0.024
Mof_C 	C 	0.0814	0.6173	0.2878	0.018
Mof_H 	H 	0.0723	0.6058	0.3127	0.028
Mof_C 	C 	0.1066	0.6498	0.2883	-0.122
Mof_H 	H 	0.1157	0.6602	0.313	0.069
Mof_C 	C 	0.1195	0.6682	0.252	0.109
Mof_C 	C 	0.145	0.7016	0.2505	-0.215
Mof_H 	H 	0.1529	0.7132	0.2752	0.168
Mof_C 	C 	0.1582	0.7186	0.2161	0.119
Mof_C 	C 	0.144	0.7014	0.1783	-0.094
Mof_H 	H 	0.1519	0.7135	0.1533	0.046
Mof_C 	C 	0.1192	0.6704	0.1779	-0.016
Mof_H 	H 	0.1108	0.6598	0.1529	0.03
Mof_C 	C 	0.1057	0.6519	0.2139	-0.021
Mof_C 	C 	0.0803	0.6176	0.2149	-0.035
Mof_H 	H 	0.0713	0.6061	0.1899	0.047
Mof_O 	O 	0.0334	0.5484	0.2166	-0.197
Mof_O 	O 	0.034	0.5479	0.2848	-0.187
Mof_C 	C 	0.0613	0.544	0.2491	0.16
Mof_C 	C 	0.1001	0.5696	0.2495	-0.009
Mof_C 	C 	0.1175	0.5825	0.2127	-0.008
Mof_H 	H 	0.1065	0.573	0.1877	0.037
Mof_C 	C 	0.1492	0.6066	0.2122	-0.073
Mof_H 	H 	0.1591	0.6162	0.1875	0.05
Mof_C 	C 	0.1683	0.6193	0.2483	0.043
Mof_C 	C 	0.2018	0.6454	0.2493	-0.09
Mof_H 	H 	0.2126	0.654	0.2246	-0.043
Mof_C 	C 	0.2179	0.658	0.2834	0.184
Mof_C 	C 	0.2012	0.6434	0.3217	-0.115
Mof_H 	H 	0.2131	0.651	0.347	0.046
Mof_C 	C 	0.1703	0.6187	0.3214	-0.02
Mof_H 	H 	0.1599	0.6099	0.3462	0.034
Mof_C 	C 	0.1516	0.6056	0.2864	0.006
Mof_C 	C 	0.1176	0.5808	0.2849	-0.054
Mof_H 	H 	0.1061	0.5719	0.3099	0.055
Mof_O 	O 	0.0478	0.5344	0.2156	-0.202
Mof_O 	O 	0.0483	0.534	0.2832	-0.208
Mof_C 	C 	0.68715	0.25366	0.71666	-0.104
Mof_C 	C 	0.71697	0.25334	0.68732	0.094
Mof_H 	H 	0.7169	0.2313	0.6688	-0.112
Mof_C 	C 	0.5433	0.0611	0.7506	0.141
Mof_C 	C 	0.5695	0.1	0.7505	-0.028
Mof_C 	C 	0.5814	0.1173	0.7878	0.023
Mof_H 	H 	0.5723	0.1058	0.8127	0.028
Mof_C 	C 	0.6066	0.1498	0.7883	-0.123
Mof_H 	H 	0.6157	0.1602	0.813	0.07
Mof_C 	C 	0.6195	0.1682	0.752	0.109
Mof_C 	C 	0.645	0.2016	0.7505	-0.21
Mof_H 	H 	0.6529	0.2132	0.7752	0.163
Mof_C 	C 	0.6582	0.2186	0.7161	0.118
Mof_C 	C 	0.644	0.2014	0.6783	-0.092
Mof_H 	H 	0.6519	0.2135	0.6533	0.046
Mof_C 	C 	0.6192	0.1704	0.6779	-0.015
Mof_H 	H 	0.6108	0.1598	0.6529	0.032
Mof_C 	C 	0.6057	0.1519	0.7139	-0.021
Mof_C 	C 	0.5803	0.1176	0.7149	-0.03
Mof_H 	H 	0.5713	0.1061	0.6899	0.048
Mof_O 	O 	0.5334	0.0484	0.7166	-0.191
Mof_O 	O 	0.534	0.0479	0.7848	-0.18
Mof_C 	C 	0.5613	0.044	0.7491	0.142
Mof_C 	C 	0.6001	0.0696	0.7495	-0.003
Mof_C 	C 	0.6175	0.0825	0.7127	-0.015
Mof_H 	H 	0.6065	0.073	0.6877	0.039
Mof_C 	C 	0.6492	0.1066	0.7122	-0.069
Mof_H 	H 	0.6591	0.1162	0.6875	0.049
Mof_C 	C 	0.6683	0.1193	0.7483	0.04
Mof_C 	C 	0.7018	0.1454	0.7493	-0.089
Mof_H 	H 	0.7126	0.154	0.7246	-0.046
Mof_C 	C 	0.7179	0.158	0.7834	0.186
Mof_C 	C 	0.7012	0.1434	0.8217	-0.116
Mof_H 	H 	0.7131	0.151	0.847	0.046
Mof_C 	C 	0.6703	0.1187	0.8214	-0.022
Mof_H 	H 	0.6599	0.1099	0.8462	0.035
Mof_C 	C 	0.6516	0.1056	0.7864	0.008
Mof_C 	C 	0.6176	0.0808	0.7849	-0.061
Mof_H 	H 	0.6061	0.0719	0.8099	0.057
Mof_O 	O 	0.5478	0.0344	0.7156	-0.207
Mof_O 	O 	0.5483	0.034	0.7832	-0.215
Mof_C 	C 	0.81285	0.24634	0.21666	-0.105
Mof_C 	C 	0.78303	0.24666	0.18732	0.093
Mof_H 	H 	0.7831	0.2687	0.1688	-0.112
Mof_C 	C 	0.9567	0.4389	0.2506	0.142
Mof_C 	C 	0.9305	0.4	0.2505	-0.025
Mof_C 	C 	0.9186	0.3827	0.2878	0.023
Mof_H 	H 	0.9277	0.3942	0.3127	0.031
Mof_C 	C 	0.8934	0.3502	0.2883	-0.122
Mof_H 	H 	0.8843	0.3398	0.313	0.07
Mof_C 	C 	0.8805	0.3318	0.252	0.11
Mof_C 	C 	0.855	0.2984	0.2505	-0.211
Mof_H 	H 	0.8471	0.2868	0.2752	0.165
Mof_C 	C 	0.8418	0.2814	0.2161	0.119
Mof_C 	C 	0.856	0.2986	0.1783	-0.092
Mof_H 	H 	0.8481	0.2865	0.1533	0.046
Mof_C 	C 	0.8808	0.3296	0.1779	-0.015
Mof_H 	H 	0.8892	0.3402	0.1529	0.033
Mof_C 	C 	0.8943	0.3481	0.2139	-0.02
Mof_C 	C 	0.9197	0.3824	0.2149	-0.03
Mof_H 	H 	0.9287	0.3939	0.1899	0.05
Mof_O 	O 	0.9666	0.4516	0.2166	-0.183
Mof_O 	O 	0.966	0.4521	0.2848	-0.172
Mof_C 	C 	0.9387	0.456	0.2491	0.143
Mof_C 	C 	0.8999	0.4304	0.2495	0
Mof_C 	C 	0.8825	0.4175	0.2127	-0.017
Mof_H 	H 	0.8935	0.427	0.1877	0.042
Mof_C 	C 	0.8508	0.3934	0.2122	-0.067
Mof_H 	H 	0.8409	0.3838	0.1875	0.048
Mof_C 	C 	0.8317	0.3807	0.2483	0.04
Mof_C 	C 	0.7982	0.3546	0.2493	-0.09
Mof_H 	H 	0.7874	0.346	0.2246	-0.042
Mof_C 	C 	0.7821	0.342	0.2834	0.184
Mof_C 	C 	0.7988	0.3566	0.3217	-0.114
Mof_H 	H 	0.7869	0.349	0.347	0.046
Mof_C 	C 	0.8297	0.3813	0.3214	-0.023
Mof_H 	H 	0.8401	0.3901	0.3462	0.036
Mof_C 	C 	0.8484	0.3944	0.2864	0.011
Mof_C 	C 	0.8824	0.4192	0.2849	-0.062
Mof_H 	H 	0.8939	0.4281	0.3099	0.06
Mof_O 	O 	0.9522	0.4656	0.2156	-0.2
Mof_O 	O 	0.9517	0.466	0.2832	-0.208
Mof_C 	C 	0.31285	0.74634	0.71666	-0.105
Mof_C 	C 	0.28303	0.74666	0.68732	0.092
Mof_H 	H 	0.2831	0.7687	0.6688	-0.11
Mof_C 	C 	0.4567	0.9389	0.7506	0.124
Mof_C 	C 	0.4305	0.9	0.7505	-0.02
Mof_C 	C 	0.4186	0.8827	0.7878	0.017
Mof_H 	H 	0.4277	0.8942	0.8127	0.032
Mof_C 	C 	0.3934	0.8502	0.7883	-0.12
Mof_H 	H 	0.3843	0.8398	0.813	0.069
Mof_C 	C 	0.3805	0.8318	0.752	0.108
Mof_C 	C 	0.355	0.7984	0.7505	-0.214
Mof_H 	H 	0.3471	0.7868	0.7752	0.169
Mof_C 	C 	0.3418	0.7814	0.7161	0.119
Mof_C 	C 	0.356	0.7986	0.6783	-0.092
Mof_H 	H 	0.3481	0.7865	0.6533	0.046
Mof_C 	C 	0.3808	0.8296	0.6779	-0.017
Mof_H 	H 	0.3892	0.8402	0.6529	0.034
Mof_C 	C 	0.3943	0.8481	0.7139	-0.018
Mof_C 	C 	0.4197	0.8824	0.7149	-0.036
Mof_H 	H 	0.4287	0.8939	0.6899	0.051
Mof_O 	O 	0.4666	0.9516	0.7166	-0.189
Mof_O 	O 	0.466	0.9521	0.7848	-0.178
Mof_C 	C 	0.4387	0.956	0.7491	0.16
Mof_C 	C 	0.3999	0.9304	0.7495	-0.004
Mof_C 	C 	0.3825	0.9175	0.7127	-0.011
Mof_H 	H 	0.3935	0.927	0.6877	0.042
Mof_C 	C 	0.3508	0.8934	0.7122	-0.069
Mof_H 	H 	0.3409	0.8838	0.6875	0.05
Mof_C 	C 	0.3317	0.8807	0.7483	0.042
Mof_C 	C 	0.2982	0.8546	0.7493	-0.089
Mof_H 	H 	0.2874	0.846	0.7246	-0.043
Mof_C 	C 	0.2821	0.842	0.7834	0.184
Mof_C 	C 	0.2988	0.8566	0.8217	-0.113
Mof_H 	H 	0.2869	0.849	0.847	0.046
Mof_C 	C 	0.3297	0.8813	0.8214	-0.022
Mof_H 	H 	0.3401	0.8901	0.8462	0.038
Mof_C 	C 	0.3484	0.8944	0.7864	0.01
Mof_C 	C 	0.3824	0.9192	0.7849	-0.056
Mof_H 	H 	0.3939	0.9281	0.8099	0.06
Mof_O 	O 	0.4522	0.9656	0.7156	-0.193
Mof_O 	O 	0.4517	0.966	0.7832	-0.201
Mof_C 	C 	0.18715	0.24634	0.78334	-0.106
Mof_C 	C 	0.21697	0.24666	0.81268	0.093
Mof_H 	H 	0.2169	0.2687	0.8312	-0.11
Mof_C 	C 	0.0433	0.4389	0.7494	0.123
Mof_C 	C 	0.0695	0.4	0.7495	-0.023
Mof_C 	C 	0.0814	0.3827	0.7122	0.018
Mof_H 	H 	0.0723	0.3942	0.6873	0.028
Mof_C 	C 	0.1066	0.3502	0.7117	-0.122
Mof_H 	H 	0.1157	0.3398	0.687	0.069
Mof_C 	C 	0.1195	0.3318	0.748	0.109
Mof_C 	C 	0.145	0.2984	0.7495	-0.216
Mof_H 	H 	0.1529	0.2868	0.7248	0.169
Mof_C 	C 	0.1582	0.2814	0.7839	0.12
Mof_C 	C 	0.144	0.2986	0.8217	-0.093
Mof_H 	H 	0.1519	0.2865	0.8467	0.046
Mof_C 	C 	0.1192	0.3296	0.8221	-0.016
Mof_H 	H 	0.1108	0.3402	0.8471	0.032
Mof_C 	C 	0.1057	0.3481	0.7861	-0.021
Mof_C 	C 	0.0803	0.3824	0.7851	-0.035
Mof_H 	H 	0.0713	0.3939	0.8101	0.049
Mof_O 	O 	0.0334	0.4516	0.7834	-0.196
Mof_O 	O 	0.034	0.4521	0.7152	-0.187
Mof_C 	C 	0.0613	0.456	0.7509	0.16
Mof_C 	C 	0.1001	0.4304	0.7505	-0.009
Mof_C 	C 	0.1175	0.4175	0.7873	-0.009
Mof_H 	H 	0.1065	0.427	0.8123	0.039
Mof_C 	C 	0.1492	0.3934	0.7878	-0.071
Mof_H 	H 	0.1591	0.3838	0.8125	0.05
Mof_C 	C 	0.1683	0.3807	0.7517	0.042
Mof_C 	C 	0.2018	0.3546	0.7507	-0.087
Mof_H 	H 	0.2126	0.346	0.7754	-0.049
Mof_C 	C 	0.2179	0.342	0.7166	0.187
Mof_C 	C 	0.2012	0.3566	0.6783	-0.117
Mof_H 	H 	0.2131	0.349	0.653	0.046
Mof_C 	C 	0.1703	0.3813	0.6786	-0.02
Mof_H 	H 	0.1599	0.3901	0.6538	0.034
Mof_C 	C 	0.1516	0.3944	0.7136	0.006
Mof_C 	C 	0.1176	0.4192	0.7151	-0.054
Mof_H 	H 	0.1061	0.4281	0.6901	0.055
Mof_O 	O 	0.0478	0.4656	0.7844	-0.201
Mof_O 	O 	0.0483	0.466	0.7168	-0.209
Mof_C 	C 	0.68715	0.74634	0.28334	-0.106
Mof_C 	C 	0.71697	0.74666	0.31268	0.094
Mof_H 	H 	0.7169	0.7687	0.3312	-0.113
Mof_C 	C 	0.5433	0.9389	0.2494	0.124
Mof_C 	C 	0.5695	0.9	0.2495	-0.021
Mof_C 	C 	0.5814	0.8827	0.2122	0.018
Mof_H 	H 	0.5723	0.8942	0.1873	0.031
Mof_C 	C 	0.6066	0.8502	0.2117	-0.121
Mof_H 	H 	0.6157	0.8398	0.187	0.069
Mof_C 	C 	0.6195	0.8318	0.248	0.109
Mof_C 	C 	0.645	0.7984	0.2495	-0.216
Mof_H 	H 	0.6529	0.7868	0.2248	0.171
Mof_C 	C 	0.6582	0.7814	0.2839	0.12
Mof_C 	C 	0.644	0.7986	0.3217	-0.092
Mof_H 	H 	0.6519	0.7865	0.3467	0.046
Mof_C 	C 	0.6192	0.8296	0.3221	-0.016
Mof_H 	H 	0.6108	0.8402	0.3471	0.033
Mof_C 	C 	0.6057	0.8481	0.2861	-0.019
Mof_C 	C 	0.5803	0.8824	0.2851	-0.035
Mof_H 	H 	0.5713	0.8939	0.3101	0.051
Mof_O 	O 	0.5334	0.9516	0.2834	-0.189
Mof_O 	O 	0.534	0.9521	0.2152	-0.178
Mof_C 	C 	0.5613	0.956	0.2509	0.16
Mof_C 	C 	0.6001	0.9304	0.2505	-0.005
Mof_C 	C 	0.6175	0.9175	0.2873	-0.011
Mof_H 	H 	0.6065	0.927	0.3123	0.042
Mof_C 	C 	0.6492	0.8934	0.2878	-0.069
Mof_H 	H 	0.6591	0.8838	0.3125	0.05
Mof_C 	C 	0.6683	0.8807	0.2517	0.042
Mof_C 	C 	0.7018	0.8546	0.2507	-0.089
Mof_H 	H 	0.7126	0.846	0.2754	-0.044
Mof_C 	C 	0.7179	0.842	0.2166	0.185
Mof_C 	C 	0.7012	0.8566	0.1783	-0.114
Mof_H 	H 	0.7131	0.849	0.153	0.046
Mof_C 	C 	0.6703	0.8813	0.1786	-0.021
Mof_H 	H 	0.6599	0.8901	0.1538	0.036
Mof_C 	C 	0.6516	0.8944	0.2136	0.009
Mof_C 	C 	0.6176	0.9192	0.2151	-0.056
Mof_H 	H 	0.6061	0.9281	0.1901	0.059
Mof_O 	O 	0.5478	0.9656	0.2844	-0.193
Mof_O 	O 	0.5483	0.966	0.2168	-0.201
Mof_Cu	Cu	0.21013	0	0.5	0.891
Mof_Cu	Cu	0.28987	0	0.5	0.891
Mof_Cu	Cu	0.71013	0.5	-0	0.891
Mof_Cu	Cu	0.78987	0.5	-0	0.891
Mof_Cu	Cu	0.78987	0	0.5	0.892
Mof_Cu	Cu	0.71013	0	0.5	0.89
Mof_Cu	Cu	0.28987	0.5	-0	0.892
Mof_Cu	Cu	0.21013	0.5	-0	0.89
Mof_Cu	Cu	0.5	0.21013	-0	0.891
Mof_Cu	Cu	0.5	0.28987	-0	0.891
Mof_Cu	Cu	1.8747e-33	0.71013	0.5	0.891
Mof_Cu	Cu	-3.65635e-33	0.78987	0.5	0.891
Mof_Cu	Cu	0.5	0.78987	-0	0.892
Mof_Cu	Cu	0.5	0.71013	-0	0.89
Mof_Cu	Cu	1.8747e-33	0.28987	0.5	0.892
Mof_Cu	Cu	1.8747e-33	0.21013	0.5	0.89
Mof_Cu	Cu	6.31891e-33	0.5	0.21013	0.891
Mof_Cu	Cu	1.08684e-33	0.5	0.28987	0.891
Mof_Cu	Cu	0.5	0	0.71013	0.891
Mof_Cu	Cu	0.5	0	0.78987	0.891
Mof_Cu	Cu	-2.56951e-33	0.5	0.78987	0.892
Mof_Cu	Cu	2.66256e-33	0.5	0.71013	0.89
Mof_Cu	Cu	0.5	-2.76553e-33	0.28987	0.892
Mof_Cu	Cu	0.5	0	0.21013	0.89
_end
