data_functionalizedCrystal
_audit_creation_method	'EQeq! by Chris Wilmer'
_symmetry_space_group_name_H-M	'P1'
_symmetry_Int_Tables_number	1
_symmetry_cell_setting	triclinic
loop_
_symmetry_equiv_pos_as_xyz
  x,y,z
_cell_length_a	23.065
_cell_length_b	19.498
_cell_length_c	9.529
_cell_angle_alpha	90
_cell_angle_beta	94.91
_cell_angle_gamma	90
loop_
_atom_site_label
_atom_site_type_symbol
_atom_site_fract_x
_atom_site_fract_y
_atom_site_fract_z
_atom_site_charge
Mof_Cu	Cu	0.497	0.22219	0.60839	1.107
Mof_O 	O 	0.5601	0.29	0.648	-0.318
Mof_O 	O 	0.5611	0.2962	0.8786	-0.324
Mof_O 	O 	0.9335	0.6543	0.6253	-0.339
Mof_O 	O 	0.945	0.6494	0.8569	-0.343
Mof_C 	C 	0.5783	0.3103	0.7655	0.507
Mof_C 	C 	0.9216	0.6346	0.7387	0.511
Mof_C 	C 	0.6304	0.3612	0.7747	-0.062
Mof_C 	C 	0.6241	0.4222	0.6991	0.196
Mof_F 	F 	0.5726	0.4383	0.6312	-0.208
Mof_C 	C 	0.6712	0.4663	0.6941	0.18
Mof_F 	F 	0.6651	0.5251	0.6213	-0.185
Mof_C 	C 	0.7245	0.4496	0.7646	0.011
Mof_C 	C 	0.7308	0.3887	0.8401	0.087
Mof_F 	F 	0.7823	0.3725	0.9081	-0.118
Mof_C 	C 	0.6837	0.3445	0.8452	0.128
Mof_F 	F 	0.6898	0.2858	0.918	-0.096
Mof_C 	C 	0.8693	0.586	0.7398	-0.064
Mof_C 	C 	0.87	0.5217	0.6769	0.127
Mof_F 	F 	0.9154	0.5027	0.6072	-0.208
Mof_C 	C 	0.8234	0.4771	0.6862	0.115
Mof_F 	F 	0.824	0.4151	0.6255	-0.181
Mof_C 	C 	0.7763	0.4968	0.7584	0.015
Mof_C 	C 	0.7756	0.5611	0.8214	0.16
Mof_F 	F 	0.7302	0.5801	0.891	-0.201
Mof_C 	C 	0.8222	0.6057	0.812	0.171
Mof_F 	F 	0.8216	0.6676	0.8727	-0.205
Mof_N 	N 	0.4996	0.2223	0.3867	-0.133
Mof_C 	C 	0.5247	0.2864	0.335	-0.096
Mof_C 	C 	0.4944	0.1518	0.3286	0.082
Mof_C 	C 	0.5158	0.2908	0.172	0.001
Mof_C 	C 	0.4512	0.2626	0.315	-0.04
Mof_C 	C 	0.4431	0.2462	0.156	0.051
Mof_C 	C 	0.4421	0.2046	0.157	-0.019
Mof_C 	C 	0.4576	0.1726	0.321	-0.021
Mof_C 	C 	0.4401	0.2157	0.316	-0.063
Mof_C 	C 	0.5345	0.1647	0.337	-0.185
Mof_C 	C 	0.6288	0.3621	0.7633	-0.06
Mof_C 	C 	0.6281	0.4142	0.6637	0.106
Mof_F 	F 	0.582	0.4219	0.5697	-0.172
Mof_C 	C 	0.6754	0.4584	0.6616	0.082
Mof_F 	F 	0.6747	0.5086	0.5655	-0.163
Mof_C 	C 	0.7233	0.4504	0.7591	0.014
Mof_C 	C 	0.7239	0.3983	0.8587	0.174
Mof_F 	F 	0.7701	0.3906	0.9528	-0.228
Mof_C 	C 	0.6767	0.3541	0.8609	0.169
Mof_F 	F 	0.6774	0.3039	0.9569	-0.237
Mof_C 	C 	0.8694	0.5854	0.7425	-0.061
Mof_C 	C 	0.8753	0.5159	0.7151	0.171
Mof_F 	F 	0.9266	0.491	0.6823	-0.234
Mof_C 	C 	0.8281	0.4721	0.7217	0.125
Mof_F 	F 	0.8338	0.405	0.6953	-0.199
Mof_C 	C 	0.7749	0.4978	0.7558	0.008
Mof_C 	C 	0.7689	0.5674	0.7832	0.108
Mof_F 	F 	0.7176	0.5922	0.816	-0.158
Mof_C 	C 	0.8161	0.6112	0.7766	0.137
Mof_F 	F 	0.8104	0.6782	0.803	-0.167
Mof_H 	H 	0.5151	0.1216	0.3529	0.09
Mof_H 	H 	0.5724	0.1638	0.3901	0.145
Mof_H 	H 	0.5817	0.1881	0.1675	0.034
Mof_H 	H 	0.537	0.1285	0.1329	0.053
Mof_H 	H 	0.4181	0.2569	0.3325	0.048
Mof_H 	H 	0.4205	0.1772	0.3564	0.081
Mof_H 	H 	0.4334	0.157	0.1337	0.012
Mof_H 	H 	0.4129	0.233	0.1059	0.019
Mof_H 	H 	0.5659	0.2881	0.3642	0.038
Mof_H 	H 	0.5062	0.3255	0.3752	0.093
Mof_H 	H 	0.485	0.3232	0.1443	0.018
Mof_H 	H 	0.5513	0.3069	0.135	0.042
Mof_H 	H 	0.4558	0.1341	0.3395	0.005
Mof_H 	H 	0.5224	0.1221	0.3803	0.02
Mof_H 	H 	0.4592	0.3111	0.3282	0.048
Mof_H 	H 	0.4155	0.2522	0.3579	0.061
Mof_H 	H 	0.4139	0.2107	0.1384	0.05
Mof_H 	H 	0.4305	0.2868	0.1036	0.052
Mof_Cu	Cu	0.997	0.72219	0.60839	1.081
Mof_O 	O 	0.0601	0.79	0.648	-0.306
Mof_O 	O 	0.0611	0.7962	0.8786	-0.312
Mof_O 	O 	0.4335	0.1543	0.6253	-0.328
Mof_O 	O 	0.445	0.1494	0.8569	-0.326
Mof_C 	C 	0.0783	0.8103	0.7655	0.504
Mof_C 	C 	0.4216	0.1346	0.7387	0.511
Mof_C 	C 	0.1304	0.8612	0.7747	-0.06
Mof_C 	C 	0.1241	0.9222	0.6991	0.195
Mof_F 	F 	0.0726	0.9383	0.6312	-0.2
Mof_C 	C 	0.1712	0.9663	0.6941	0.18
Mof_F 	F 	0.1651	0.0251	0.6213	-0.182
Mof_C 	C 	0.2245	0.9496	0.7646	0.011
Mof_C 	C 	0.2308	0.8887	0.8401	0.087
Mof_F 	F 	0.2823	0.8725	0.9081	-0.117
Mof_C 	C 	0.1837	0.8445	0.8452	0.128
Mof_F 	F 	0.1898	0.7858	0.918	-0.097
Mof_C 	C 	0.3693	0.086	0.7398	-0.063
Mof_C 	C 	0.37	0.0217	0.6769	0.129
Mof_F 	F 	0.4154	0.0027	0.6072	-0.205
Mof_C 	C 	0.3234	0.9771	0.6862	0.115
Mof_F 	F 	0.324	0.9151	0.6255	-0.181
Mof_C 	C 	0.2763	0.9968	0.7584	0.014
Mof_C 	C 	0.2756	0.0611	0.8214	0.161
Mof_F 	F 	0.2302	0.0801	0.891	-0.201
Mof_C 	C 	0.3222	0.1057	0.812	0.171
Mof_F 	F 	0.3216	0.1676	0.8727	-0.204
Mof_N 	N 	0.9996	0.7223	0.3867	-0.165
Mof_C 	C 	0.0247	0.7864	0.335	-0.203
Mof_C 	C 	0.9944	0.6518	0.3286	0.153
Mof_C 	C 	0.0158	0.7908	0.172	0.023
Mof_C 	C 	0.9512	0.7626	0.315	0.083
Mof_C 	C 	0.9431	0.7462	0.156	-0.124
Mof_C 	C 	0.9421	0.7046	0.157	-0.091
Mof_C 	C 	0.9576	0.6726	0.321	-0.111
Mof_C 	C 	0.9401	0.7157	0.316	-0.051
Mof_C 	C 	0.0345	0.6647	0.337	-0.322
Mof_C 	C 	0.1288	0.8621	0.7633	-0.058
Mof_C 	C 	0.1281	0.9142	0.6637	0.108
Mof_F 	F 	0.082	0.9219	0.5697	-0.171
Mof_C 	C 	0.1754	0.9584	0.6616	0.083
Mof_F 	F 	0.1747	0.0086	0.5655	-0.163
Mof_C 	C 	0.2233	0.9504	0.7591	0.014
Mof_C 	C 	0.2239	0.8983	0.8587	0.174
Mof_F 	F 	0.2701	0.8906	0.9528	-0.229
Mof_C 	C 	0.1767	0.8541	0.8609	0.168
Mof_F 	F 	0.1774	0.8039	0.9569	-0.236
Mof_C 	C 	0.3694	0.0854	0.7425	-0.061
Mof_C 	C 	0.3753	0.0159	0.7151	0.17
Mof_F 	F 	0.4266	0.991	0.6823	-0.228
Mof_C 	C 	0.3281	0.9721	0.7217	0.125
Mof_F 	F 	0.3338	0.905	0.6953	-0.198
Mof_C 	C 	0.2749	0.9978	0.7558	0.007
Mof_C 	C 	0.2689	0.0674	0.7832	0.108
Mof_F 	F 	0.2176	0.0922	0.816	-0.157
Mof_C 	C 	0.3161	0.1112	0.7766	0.137
Mof_F 	F 	0.3104	0.1782	0.803	-0.167
Mof_H 	H 	0.0151	0.6216	0.3529	0.114
Mof_H 	H 	0.0724	0.6638	0.3901	0.194
Mof_H 	H 	0.0817	0.6881	0.1675	0.011
Mof_H 	H 	0.037	0.6285	0.1329	0.006
Mof_H 	H 	0.9181	0.7569	0.3325	0.049
Mof_H 	H 	0.9205	0.6772	0.3564	0.085
Mof_H 	H 	0.9334	0.657	0.1337	0.019
Mof_H 	H 	0.9129	0.733	0.1059	0.039
Mof_H 	H 	0.0659	0.7881	0.3642	0.034
Mof_H 	H 	0.0062	0.8255	0.3752	0.144
Mof_H 	H 	0.985	0.8232	0.1443	-0.004
Mof_H 	H 	0.0513	0.8069	0.135	-0.074
Mof_H 	H 	0.9558	0.6341	0.3395	-0.045
Mof_H 	H 	0.0224	0.6221	0.3803	0.027
Mof_H 	H 	0.9592	0.8111	0.3282	-0.122
Mof_H 	H 	0.9155	0.7522	0.3579	0.004
Mof_H 	H 	0.9139	0.7107	0.1384	0.131
Mof_H 	H 	0.9305	0.7868	0.1036	0.075
Mof_Cu	Cu	0.503	0.22219	0.89161	1.108
Mof_O 	O 	0.4399	0.29	0.852	-0.317
Mof_O 	O 	0.4389	0.2962	0.6214	-0.322
Mof_O 	O 	0.0665	0.6543	0.8747	-0.323
Mof_O 	O 	0.055	0.6494	0.6431	-0.314
Mof_C 	C 	0.4217	0.3103	0.7345	0.507
Mof_C 	C 	0.0784	0.6346	0.7613	0.509
Mof_C 	C 	0.3696	0.3612	0.7253	-0.062
Mof_C 	C 	0.3759	0.4222	0.8009	0.196
Mof_F 	F 	0.4274	0.4383	0.8688	-0.208
Mof_C 	C 	0.3288	0.4663	0.8059	0.18
Mof_F 	F 	0.3349	0.5251	0.8787	-0.185
Mof_C 	C 	0.2755	0.4496	0.7354	0.011
Mof_C 	C 	0.2692	0.3887	0.6599	0.087
Mof_F 	F 	0.2177	0.3725	0.5919	-0.117
Mof_C 	C 	0.3163	0.3445	0.6548	0.128
Mof_F 	F 	0.3102	0.2858	0.582	-0.096
Mof_C 	C 	0.1307	0.586	0.7602	-0.062
Mof_C 	C 	0.13	0.5217	0.8231	0.13
Mof_F 	F 	0.0846	0.5027	0.8928	-0.204
Mof_C 	C 	0.1766	0.4771	0.8138	0.116
Mof_F 	F 	0.176	0.4151	0.8745	-0.182
Mof_C 	C 	0.2237	0.4968	0.7416	0.014
Mof_C 	C 	0.2244	0.5611	0.6786	0.16
Mof_F 	F 	0.2698	0.5801	0.609	-0.2
Mof_C 	C 	0.1778	0.6057	0.688	0.17
Mof_F 	F 	0.1784	0.6676	0.6273	-0.202
Mof_N 	N 	0.5004	0.2223	0.1133	-0.133
Mof_C 	C 	0.4753	0.2864	0.165	-0.096
Mof_C 	C 	0.5056	0.1518	0.1714	0.082
Mof_C 	C 	0.4842	0.2908	0.328	0.001
Mof_C 	C 	0.5488	0.2626	0.185	-0.041
Mof_C 	C 	0.5569	0.2462	0.344	0.052
Mof_C 	C 	0.5579	0.2046	0.343	-0.019
Mof_C 	C 	0.5424	0.1726	0.179	-0.021
Mof_C 	C 	0.5599	0.2157	0.184	-0.063
Mof_C 	C 	0.4655	0.1647	0.163	-0.185
Mof_C 	C 	0.3712	0.3621	0.7367	-0.06
Mof_C 	C 	0.3719	0.4142	0.8363	0.107
Mof_F 	F 	0.418	0.4219	0.9303	-0.173
Mof_C 	C 	0.3246	0.4584	0.8384	0.082
Mof_F 	F 	0.3253	0.5086	0.9345	-0.164
Mof_C 	C 	0.2767	0.4504	0.7409	0.014
Mof_C 	C 	0.2761	0.3983	0.6413	0.174
Mof_F 	F 	0.2299	0.3906	0.5472	-0.229
Mof_C 	C 	0.3233	0.3541	0.6391	0.169
Mof_F 	F 	0.3226	0.3039	0.5431	-0.237
Mof_C 	C 	0.1306	0.5854	0.7575	-0.059
Mof_C 	C 	0.1247	0.5159	0.7849	0.169
Mof_F 	F 	0.0734	0.491	0.8177	-0.22
Mof_C 	C 	0.1719	0.4721	0.7783	0.124
Mof_F 	F 	0.1662	0.405	0.8047	-0.197
Mof_C 	C 	0.2251	0.4978	0.7442	0.008
Mof_C 	C 	0.2311	0.5674	0.7168	0.108
Mof_F 	F 	0.2824	0.5922	0.684	-0.158
Mof_C 	C 	0.1839	0.6112	0.7234	0.137
Mof_F 	F 	0.1896	0.6782	0.697	-0.167
Mof_H 	H 	0.4849	0.1216	0.1471	0.09
Mof_H 	H 	0.4276	0.1638	0.1099	0.145
Mof_H 	H 	0.4183	0.1881	0.3325	0.034
Mof_H 	H 	0.463	0.1285	0.3671	0.053
Mof_H 	H 	0.5819	0.2569	0.1675	0.048
Mof_H 	H 	0.5795	0.1772	0.1436	0.081
Mof_H 	H 	0.5666	0.157	0.3663	0.012
Mof_H 	H 	0.5871	0.233	0.3941	0.019
Mof_H 	H 	0.4341	0.2881	0.1358	0.038
Mof_H 	H 	0.4938	0.3255	0.1248	0.092
Mof_H 	H 	0.515	0.3232	0.3557	0.018
Mof_H 	H 	0.4487	0.3069	0.365	0.042
Mof_H 	H 	0.5442	0.1341	0.1605	0.005
Mof_H 	H 	0.4776	0.1221	0.1197	0.02
Mof_H 	H 	0.5408	0.3111	0.1718	0.049
Mof_H 	H 	0.5845	0.2522	0.1421	0.061
Mof_H 	H 	0.5861	0.2107	0.3616	0.05
Mof_H 	H 	0.5695	0.2868	0.3964	0.052
Mof_Cu	Cu	0.003	0.72219	0.89161	1.115
Mof_O 	O 	0.9399	0.79	0.852	-0.334
Mof_O 	O 	0.9389	0.7962	0.6214	-0.339
Mof_O 	O 	0.5665	0.1543	0.8747	-0.329
Mof_O 	O 	0.555	0.1494	0.6431	-0.326
Mof_C 	C 	0.9217	0.8103	0.7345	0.509
Mof_C 	C 	0.5784	0.1346	0.7613	0.511
Mof_C 	C 	0.8696	0.8612	0.7253	-0.063
Mof_C 	C 	0.8759	0.9222	0.8009	0.197
Mof_F 	F 	0.9274	0.9383	0.8688	-0.216
Mof_C 	C 	0.8288	0.9663	0.8059	0.18
Mof_F 	F 	0.8349	0.0251	0.8787	-0.187
Mof_C 	C 	0.7755	0.9496	0.7354	0.011
Mof_C 	C 	0.7692	0.8887	0.6599	0.087
Mof_F 	F 	0.7177	0.8725	0.5919	-0.117
Mof_C 	C 	0.8163	0.8445	0.6548	0.127
Mof_F 	F 	0.8102	0.7858	0.582	-0.094
Mof_C 	C 	0.6307	0.086	0.7602	-0.063
Mof_C 	C 	0.63	0.0217	0.8231	0.129
Mof_F 	F 	0.5846	0.0027	0.8928	-0.205
Mof_C 	C 	0.6766	0.9771	0.8138	0.115
Mof_F 	F 	0.676	0.9151	0.8745	-0.181
Mof_C 	C 	0.7237	0.9968	0.7416	0.014
Mof_C 	C 	0.7244	0.0611	0.6786	0.161
Mof_F 	F 	0.7698	0.0801	0.609	-0.201
Mof_C 	C 	0.6778	0.1057	0.688	0.17
Mof_F 	F 	0.6784	0.1676	0.6273	-0.204
Mof_N 	N 	0.0004	0.7223	0.1133	-0.099
Mof_C 	C 	0.9753	0.7864	0.165	0.014
Mof_C 	C 	0.0056	0.6518	0.1714	0.006
Mof_C 	C 	0.9842	0.7908	0.328	-0.021
Mof_C 	C 	0.0488	0.7626	0.185	-0.16
Mof_C 	C 	0.0569	0.7462	0.344	0.221
Mof_C 	C 	0.0579	0.7046	0.343	0.052
Mof_C 	C 	0.0424	0.6726	0.179	0.069
Mof_C 	C 	0.0599	0.7157	0.184	-0.076
Mof_C 	C 	0.9655	0.6647	0.163	-0.041
Mof_C 	C 	0.8712	0.8621	0.7367	-0.061
Mof_C 	C 	0.8719	0.9142	0.8363	0.105
Mof_F 	F 	0.918	0.9219	0.9303	-0.173
Mof_C 	C 	0.8246	0.9584	0.8384	0.081
Mof_F 	F 	0.8253	0.0086	0.9345	-0.163
Mof_C 	C 	0.7767	0.9504	0.7409	0.014
Mof_C 	C 	0.7761	0.8983	0.6413	0.174
Mof_F 	F 	0.7299	0.8906	0.5472	-0.229
Mof_C 	C 	0.8233	0.8541	0.6391	0.169
Mof_F 	F 	0.8226	0.8039	0.5431	-0.239
Mof_C 	C 	0.6306	0.0854	0.7575	-0.06
Mof_C 	C 	0.6247	0.0159	0.7849	0.17
Mof_F 	F 	0.5734	0.991	0.8177	-0.228
Mof_C 	C 	0.6719	0.9721	0.7783	0.124
Mof_F 	F 	0.6662	0.905	0.8047	-0.198
Mof_C 	C 	0.7251	0.9978	0.7442	0.008
Mof_C 	C 	0.7311	0.0674	0.7168	0.108
Mof_F 	F 	0.7824	0.0922	0.684	-0.159
Mof_C 	C 	0.6839	0.1112	0.7234	0.137
Mof_F 	F 	0.6896	0.1782	0.697	-0.167
Mof_H 	H 	0.9849	0.6216	0.1471	0.064
Mof_H 	H 	0.9276	0.6638	0.1099	0.092
Mof_H 	H 	0.9183	0.6881	0.3325	0.057
Mof_H 	H 	0.963	0.6285	0.3671	0.099
Mof_H 	H 	0.0819	0.7569	0.1675	0.048
Mof_H 	H 	0.0795	0.6772	0.1436	0.078
Mof_H 	H 	0.0666	0.657	0.3663	0.006
Mof_H 	H 	0.0871	0.733	0.3941	-0
Mof_H 	H 	0.9341	0.7881	0.1358	0.042
Mof_H 	H 	0.9938	0.8255	0.1248	0.039
Mof_H 	H 	0.015	0.8232	0.3557	0.043
Mof_H 	H 	0.9487	0.8069	0.365	0.163
Mof_H 	H 	0.0442	0.6341	0.1605	0.057
Mof_H 	H 	0.9776	0.6221	0.1197	0.016
Mof_H 	H 	0.0408	0.8111	0.1718	0.213
Mof_H 	H 	0.0845	0.7522	0.1421	0.117
Mof_H 	H 	0.0861	0.7107	0.3616	-0.029
Mof_H 	H 	0.0695	0.7868	0.3964	0.03
Mof_C 	C 	0.5	0.2232	0.75	-0.822
Mof_C 	C 	3.32833e-18	0.7232	0.75	-0.778
Mof_Cu	Cu	0.503	0.77781	0.39161	1.108
Mof_O 	O 	0.4399	0.71	0.352	-0.317
Mof_O 	O 	0.4389	0.7038	0.1214	-0.322
Mof_O 	O 	0.0665	0.3457	0.3747	-0.322
Mof_O 	O 	0.055	0.3506	0.1431	-0.314
Mof_C 	C 	0.4217	0.6897	0.2345	0.507
Mof_C 	C 	0.0784	0.3654	0.2613	0.509
Mof_C 	C 	0.3696	0.6388	0.2253	-0.062
Mof_C 	C 	0.3759	0.5778	0.3009	0.196
Mof_F 	F 	0.4274	0.5617	0.3688	-0.208
Mof_C 	C 	0.3288	0.5337	0.3059	0.18
Mof_F 	F 	0.3349	0.4749	0.3787	-0.185
Mof_C 	C 	0.2755	0.5504	0.2354	0.011
Mof_C 	C 	0.2692	0.6113	0.1599	0.087
Mof_F 	F 	0.2177	0.6275	0.0919	-0.117
Mof_C 	C 	0.3163	0.6555	0.1548	0.128
Mof_F 	F 	0.3102	0.7142	0.082	-0.095
Mof_C 	C 	0.1307	0.414	0.2602	-0.062
Mof_C 	C 	0.13	0.4783	0.3231	0.13
Mof_F 	F 	0.0846	0.4973	0.3928	-0.203
Mof_C 	C 	0.1766	0.5229	0.3138	0.116
Mof_F 	F 	0.176	0.5849	0.3745	-0.181
Mof_C 	C 	0.2237	0.5032	0.2416	0.015
Mof_C 	C 	0.2244	0.4389	0.1786	0.16
Mof_F 	F 	0.2698	0.4199	0.109	-0.2
Mof_C 	C 	0.1778	0.3943	0.188	0.17
Mof_F 	F 	0.1784	0.3324	0.1273	-0.202
Mof_N 	N 	0.5004	0.7777	0.6133	-0.133
Mof_C 	C 	0.4753	0.7136	0.665	-0.096
Mof_C 	C 	0.5056	0.8482	0.6714	0.081
Mof_C 	C 	0.4842	0.7092	0.828	0.002
Mof_C 	C 	0.5488	0.7374	0.685	-0.041
Mof_C 	C 	0.5569	0.7538	0.844	0.051
Mof_C 	C 	0.5579	0.7954	0.843	-0.018
Mof_C 	C 	0.5424	0.8274	0.679	-0.021
Mof_C 	C 	0.5599	0.7843	0.684	-0.062
Mof_C 	C 	0.4655	0.8353	0.663	-0.184
Mof_C 	C 	0.3712	0.6379	0.2367	-0.06
Mof_C 	C 	0.3719	0.5858	0.3363	0.107
Mof_F 	F 	0.418	0.5781	0.4303	-0.173
Mof_C 	C 	0.3246	0.5416	0.3384	0.082
Mof_F 	F 	0.3253	0.4914	0.4345	-0.163
Mof_C 	C 	0.2767	0.5496	0.2409	0.014
Mof_C 	C 	0.2761	0.6017	0.1413	0.174
Mof_F 	F 	0.2299	0.6094	0.0472	-0.228
Mof_C 	C 	0.3233	0.6459	0.1391	0.169
Mof_F 	F 	0.3226	0.6961	0.0431	-0.237
Mof_C 	C 	0.1306	0.4146	0.2575	-0.059
Mof_C 	C 	0.1247	0.4841	0.2849	0.169
Mof_F 	F 	0.0734	0.509	0.3177	-0.22
Mof_C 	C 	0.1719	0.5279	0.2783	0.124
Mof_F 	F 	0.1662	0.595	0.3047	-0.197
Mof_C 	C 	0.2251	0.5022	0.2442	0.008
Mof_C 	C 	0.2311	0.4326	0.2168	0.109
Mof_F 	F 	0.2824	0.4078	0.184	-0.158
Mof_C 	C 	0.1839	0.3888	0.2234	0.137
Mof_F 	F 	0.1896	0.3218	0.197	-0.167
Mof_H 	H 	0.4849	0.8784	0.6471	0.09
Mof_H 	H 	0.4276	0.8362	0.6099	0.144
Mof_H 	H 	0.4183	0.8119	0.8325	0.034
Mof_H 	H 	0.463	0.8715	0.8671	0.053
Mof_H 	H 	0.5819	0.7431	0.6675	0.048
Mof_H 	H 	0.5795	0.8228	0.6436	0.081
Mof_H 	H 	0.5666	0.843	0.8663	0.012
Mof_H 	H 	0.5871	0.767	0.8941	0.019
Mof_H 	H 	0.4341	0.7119	0.6358	0.038
Mof_H 	H 	0.4938	0.6745	0.6248	0.092
Mof_H 	H 	0.515	0.6768	0.8557	0.018
Mof_H 	H 	0.4487	0.6931	0.865	0.042
Mof_H 	H 	0.5442	0.8659	0.6605	0.005
Mof_H 	H 	0.4776	0.8779	0.6197	0.021
Mof_H 	H 	0.5408	0.6889	0.6718	0.048
Mof_H 	H 	0.5845	0.7478	0.6421	0.061
Mof_H 	H 	0.5861	0.7893	0.8616	0.05
Mof_H 	H 	0.5695	0.7132	0.8964	0.053
Mof_Cu	Cu	0.003	0.27781	0.39161	1.116
Mof_O 	O 	0.9399	0.21	0.352	-0.334
Mof_O 	O 	0.9389	0.2038	0.1214	-0.339
Mof_O 	O 	0.5665	0.8457	0.3747	-0.328
Mof_O 	O 	0.555	0.8506	0.1431	-0.326
Mof_C 	C 	0.9217	0.1897	0.2345	0.509
Mof_C 	C 	0.5784	0.8654	0.2613	0.511
Mof_C 	C 	0.8696	0.1388	0.2253	-0.063
Mof_C 	C 	0.8759	0.0778	0.3009	0.197
Mof_F 	F 	0.9274	0.0617	0.3688	-0.216
Mof_C 	C 	0.8288	0.0337	0.3059	0.18
Mof_F 	F 	0.8349	0.9749	0.3787	-0.187
Mof_C 	C 	0.7755	0.0504	0.2354	0.011
Mof_C 	C 	0.7692	0.1113	0.1599	0.086
Mof_F 	F 	0.7177	0.1275	0.0919	-0.117
Mof_C 	C 	0.8163	0.1555	0.1548	0.127
Mof_F 	F 	0.8102	0.2142	0.082	-0.094
Mof_C 	C 	0.6307	0.914	0.2602	-0.063
Mof_C 	C 	0.63	0.9783	0.3231	0.129
Mof_F 	F 	0.5846	0.9973	0.3928	-0.205
Mof_C 	C 	0.6766	0.0229	0.3138	0.115
Mof_F 	F 	0.676	0.0849	0.3745	-0.181
Mof_C 	C 	0.7237	0.0032	0.2416	0.014
Mof_C 	C 	0.7244	0.9389	0.1786	0.16
Mof_F 	F 	0.7698	0.9199	0.109	-0.201
Mof_C 	C 	0.6778	0.8943	0.188	0.17
Mof_F 	F 	0.6784	0.8324	0.1273	-0.203
Mof_N 	N 	0.0004	0.2777	0.6133	-0.1
Mof_C 	C 	0.9753	0.2136	0.665	0.012
Mof_C 	C 	0.0056	0.3482	0.6714	0.006
Mof_C 	C 	0.9842	0.2092	0.828	-0.021
Mof_C 	C 	0.0488	0.2374	0.685	-0.156
Mof_C 	C 	0.0569	0.2538	0.844	0.213
Mof_C 	C 	0.0579	0.2954	0.843	0.05
Mof_C 	C 	0.0424	0.3274	0.679	0.068
Mof_C 	C 	0.0599	0.2843	0.684	-0.077
Mof_C 	C 	0.9655	0.3353	0.663	-0.042
Mof_C 	C 	0.8712	0.1379	0.2367	-0.061
Mof_C 	C 	0.8719	0.0858	0.3363	0.105
Mof_F 	F 	0.918	0.0781	0.4303	-0.173
Mof_C 	C 	0.8246	0.0416	0.3384	0.081
Mof_F 	F 	0.8253	0.9914	0.4345	-0.163
Mof_C 	C 	0.7767	0.0496	0.2409	0.014
Mof_C 	C 	0.7761	0.1017	0.1413	0.174
Mof_F 	F 	0.7299	0.1094	0.0472	-0.229
Mof_C 	C 	0.8233	0.1459	0.1391	0.169
Mof_F 	F 	0.8226	0.1961	0.0431	-0.239
Mof_C 	C 	0.6306	0.9146	0.2575	-0.06
Mof_C 	C 	0.6247	0.9841	0.2849	0.17
Mof_F 	F 	0.5734	0.009	0.3177	-0.228
Mof_C 	C 	0.6719	0.0279	0.2783	0.125
Mof_F 	F 	0.6662	0.095	0.3047	-0.198
Mof_C 	C 	0.7251	0.0022	0.2442	0.008
Mof_C 	C 	0.7311	0.9326	0.2168	0.108
Mof_F 	F 	0.7824	0.9078	0.184	-0.159
Mof_C 	C 	0.6839	0.8888	0.2234	0.137
Mof_F 	F 	0.6896	0.8218	0.197	-0.167
Mof_H 	H 	0.9849	0.3784	0.6471	0.064
Mof_H 	H 	0.9276	0.3362	0.6099	0.092
Mof_H 	H 	0.9183	0.3119	0.8325	0.056
Mof_H 	H 	0.963	0.3715	0.8671	0.098
Mof_H 	H 	0.0819	0.2431	0.6675	0.048
Mof_H 	H 	0.0795	0.3228	0.6436	0.079
Mof_H 	H 	0.0666	0.343	0.8663	0.006
Mof_H 	H 	0.0871	0.267	0.8941	0.001
Mof_H 	H 	0.9341	0.2119	0.6358	0.042
Mof_H 	H 	0.9938	0.1745	0.6248	0.04
Mof_H 	H 	0.015	0.1768	0.8557	0.042
Mof_H 	H 	0.9487	0.1931	0.865	0.162
Mof_H 	H 	0.0442	0.3659	0.6605	0.057
Mof_H 	H 	0.9776	0.3779	0.6197	0.017
Mof_H 	H 	0.0408	0.1889	0.6718	0.206
Mof_H 	H 	0.0845	0.2478	0.6421	0.115
Mof_H 	H 	0.0861	0.2893	0.8616	-0.026
Mof_H 	H 	0.0695	0.2132	0.8964	0.032
Mof_Cu	Cu	0.497	0.77781	0.10839	1.108
Mof_O 	O 	0.5601	0.71	0.148	-0.317
Mof_O 	O 	0.5611	0.7038	0.3786	-0.322
Mof_O 	O 	0.9335	0.3457	0.1253	-0.34
Mof_O 	O 	0.945	0.3506	0.3569	-0.343
Mof_C 	C 	0.5783	0.6897	0.2655	0.507
Mof_C 	C 	0.9216	0.3654	0.2387	0.511
Mof_C 	C 	0.6304	0.6388	0.2747	-0.062
Mof_C 	C 	0.6241	0.5778	0.1991	0.196
Mof_F 	F 	0.5726	0.5617	0.1312	-0.208
Mof_C 	C 	0.6712	0.5337	0.1941	0.18
Mof_F 	F 	0.6651	0.4749	0.1213	-0.185
Mof_C 	C 	0.7245	0.5504	0.2646	0.011
Mof_C 	C 	0.7308	0.6113	0.3401	0.087
Mof_F 	F 	0.7823	0.6275	0.4081	-0.118
Mof_C 	C 	0.6837	0.6555	0.3452	0.128
Mof_F 	F 	0.6898	0.7142	0.418	-0.096
Mof_C 	C 	0.8693	0.414	0.2398	-0.064
Mof_C 	C 	0.87	0.4783	0.1769	0.127
Mof_F 	F 	0.9154	0.4973	0.1072	-0.208
Mof_C 	C 	0.8234	0.5229	0.1862	0.115
Mof_F 	F 	0.824	0.5849	0.1255	-0.181
Mof_C 	C 	0.7763	0.5032	0.2584	0.015
Mof_C 	C 	0.7756	0.4389	0.3214	0.16
Mof_F 	F 	0.7302	0.4199	0.391	-0.201
Mof_C 	C 	0.8222	0.3943	0.312	0.171
Mof_F 	F 	0.8216	0.3324	0.3727	-0.205
Mof_N 	N 	0.4996	0.7777	0.8867	-0.133
Mof_C 	C 	0.5247	0.7136	0.835	-0.096
Mof_C 	C 	0.4944	0.8482	0.8286	0.081
Mof_C 	C 	0.5158	0.7092	0.672	0.001
Mof_C 	C 	0.4512	0.7374	0.815	-0.04
Mof_C 	C 	0.4431	0.7538	0.656	0.051
Mof_C 	C 	0.4421	0.7954	0.657	-0.019
Mof_C 	C 	0.4576	0.8274	0.821	-0.021
Mof_C 	C 	0.4401	0.7843	0.816	-0.063
Mof_C 	C 	0.5345	0.8353	0.837	-0.184
Mof_C 	C 	0.6288	0.6379	0.2633	-0.06
Mof_C 	C 	0.6281	0.5858	0.1637	0.106
Mof_F 	F 	0.582	0.5781	0.0697	-0.172
Mof_C 	C 	0.6754	0.5416	0.1616	0.082
Mof_F 	F 	0.6747	0.4914	0.0655	-0.163
Mof_C 	C 	0.7233	0.5496	0.2591	0.014
Mof_C 	C 	0.7239	0.6017	0.3587	0.174
Mof_F 	F 	0.7701	0.6094	0.4528	-0.228
Mof_C 	C 	0.6767	0.6459	0.3609	0.169
Mof_F 	F 	0.6774	0.6961	0.4569	-0.237
Mof_C 	C 	0.8694	0.4146	0.2425	-0.061
Mof_C 	C 	0.8753	0.4841	0.2151	0.171
Mof_F 	F 	0.9266	0.509	0.1823	-0.234
Mof_C 	C 	0.8281	0.5279	0.2217	0.125
Mof_F 	F 	0.8338	0.595	0.1953	-0.199
Mof_C 	C 	0.7749	0.5022	0.2558	0.008
Mof_C 	C 	0.7689	0.4326	0.2832	0.108
Mof_F 	F 	0.7176	0.4078	0.316	-0.158
Mof_C 	C 	0.8161	0.3888	0.2766	0.137
Mof_F 	F 	0.8104	0.3218	0.303	-0.167
Mof_H 	H 	0.5151	0.8784	0.8529	0.09
Mof_H 	H 	0.5724	0.8362	0.8901	0.144
Mof_H 	H 	0.5817	0.8119	0.6675	0.034
Mof_H 	H 	0.537	0.8715	0.6329	0.053
Mof_H 	H 	0.4181	0.7431	0.8325	0.048
Mof_H 	H 	0.4205	0.8228	0.8564	0.081
Mof_H 	H 	0.4334	0.843	0.6337	0.012
Mof_H 	H 	0.4129	0.767	0.6059	0.019
Mof_H 	H 	0.5659	0.7119	0.8642	0.038
Mof_H 	H 	0.5062	0.6745	0.8752	0.092
Mof_H 	H 	0.485	0.6768	0.6443	0.018
Mof_H 	H 	0.5513	0.6931	0.635	0.042
Mof_H 	H 	0.4558	0.8659	0.8395	0.005
Mof_H 	H 	0.5224	0.8779	0.8803	0.021
Mof_H 	H 	0.4592	0.6889	0.8282	0.048
Mof_H 	H 	0.4155	0.7478	0.8579	0.061
Mof_H 	H 	0.4139	0.7893	0.6384	0.05
Mof_H 	H 	0.4305	0.7132	0.6036	0.053
Mof_Cu	Cu	0.997	0.27781	0.10839	1.08
Mof_O 	O 	0.0601	0.21	0.148	-0.306
Mof_O 	O 	0.0611	0.2038	0.3786	-0.311
Mof_O 	O 	0.4335	0.8457	0.1253	-0.328
Mof_O 	O 	0.445	0.8506	0.3569	-0.326
Mof_C 	C 	0.0783	0.1897	0.2655	0.504
Mof_C 	C 	0.4216	0.8654	0.2387	0.511
Mof_C 	C 	0.1304	0.1388	0.2747	-0.06
Mof_C 	C 	0.1241	0.0778	0.1991	0.195
Mof_F 	F 	0.0726	0.0617	0.1312	-0.2
Mof_C 	C 	0.1712	0.0337	0.1941	0.179
Mof_F 	F 	0.1651	0.9749	0.1213	-0.182
Mof_C 	C 	0.2245	0.0504	0.2646	0.011
Mof_C 	C 	0.2308	0.1113	0.3401	0.088
Mof_F 	F 	0.2823	0.1275	0.4081	-0.118
Mof_C 	C 	0.1837	0.1555	0.3452	0.128
Mof_F 	F 	0.1898	0.2142	0.418	-0.097
Mof_C 	C 	0.3693	0.914	0.2398	-0.063
Mof_C 	C 	0.37	0.9783	0.1769	0.129
Mof_F 	F 	0.4154	0.9973	0.1072	-0.205
Mof_C 	C 	0.3234	0.0229	0.1862	0.115
Mof_F 	F 	0.324	0.0849	0.1255	-0.181
Mof_C 	C 	0.2763	0.0032	0.2584	0.014
Mof_C 	C 	0.2756	0.9389	0.3214	0.161
Mof_F 	F 	0.2302	0.9199	0.391	-0.201
Mof_C 	C 	0.3222	0.8943	0.312	0.171
Mof_F 	F 	0.3216	0.8324	0.3727	-0.204
Mof_N 	N 	0.9996	0.2777	0.8867	-0.164
Mof_C 	C 	0.0247	0.2136	0.835	-0.198
Mof_C 	C 	0.9944	0.3482	0.8286	0.148
Mof_C 	C 	0.0158	0.2092	0.672	0.023
Mof_C 	C 	0.9512	0.2374	0.815	0.08
Mof_C 	C 	0.9431	0.2538	0.656	-0.122
Mof_C 	C 	0.9421	0.2954	0.657	-0.089
Mof_C 	C 	0.9576	0.3274	0.821	-0.108
Mof_C 	C 	0.9401	0.2843	0.816	-0.052
Mof_C 	C 	0.0345	0.3353	0.837	-0.315
Mof_C 	C 	0.1288	0.1379	0.2633	-0.058
Mof_C 	C 	0.1281	0.0858	0.1637	0.108
Mof_F 	F 	0.082	0.0781	0.0697	-0.171
Mof_C 	C 	0.1754	0.0416	0.1616	0.083
Mof_F 	F 	0.1747	0.9914	0.0655	-0.163
Mof_C 	C 	0.2233	0.0496	0.2591	0.014
Mof_C 	C 	0.2239	0.1017	0.3587	0.174
Mof_F 	F 	0.2701	0.1094	0.4528	-0.228
Mof_C 	C 	0.1767	0.1459	0.3609	0.168
Mof_F 	F 	0.1774	0.1961	0.4569	-0.235
Mof_C 	C 	0.3694	0.9146	0.2425	-0.06
Mof_C 	C 	0.3753	0.9841	0.2151	0.17
Mof_F 	F 	0.4266	0.009	0.1823	-0.228
Mof_C 	C 	0.3281	0.0279	0.2217	0.125
Mof_F 	F 	0.3338	0.095	0.1953	-0.198
Mof_C 	C 	0.2749	0.0022	0.2558	0.008
Mof_C 	C 	0.2689	0.9326	0.2832	0.108
Mof_F 	F 	0.2176	0.9078	0.316	-0.157
Mof_C 	C 	0.3161	0.8888	0.2766	0.137
Mof_F 	F 	0.3104	0.8218	0.303	-0.166
Mof_H 	H 	0.0151	0.3784	0.8529	0.113
Mof_H 	H 	0.0724	0.3362	0.8901	0.191
Mof_H 	H 	0.0817	0.3119	0.6675	0.011
Mof_H 	H 	0.037	0.3715	0.6329	0.007
Mof_H 	H 	0.9181	0.2431	0.8325	0.049
Mof_H 	H 	0.9205	0.3228	0.8564	0.085
Mof_H 	H 	0.9334	0.343	0.6337	0.019
Mof_H 	H 	0.9129	0.267	0.6059	0.039
Mof_H 	H 	0.0659	0.2119	0.8642	0.034
Mof_H 	H 	0.0062	0.1745	0.8752	0.141
Mof_H 	H 	0.985	0.1768	0.6443	-0.004
Mof_H 	H 	0.0513	0.1931	0.635	-0.069
Mof_H 	H 	0.9558	0.3659	0.8395	-0.043
Mof_H 	H 	0.0224	0.3779	0.8803	0.028
Mof_H 	H 	0.9592	0.1889	0.8282	-0.119
Mof_H 	H 	0.9155	0.2478	0.8579	0.005
Mof_H 	H 	0.9139	0.2893	0.6384	0.129
Mof_H 	H 	0.9305	0.2132	0.6036	0.076
Mof_C 	C 	0.5	0.7768	0.25	-0.822
Mof_C 	C 	-1.66416e-18	0.2768	0.25	-0.777
_end
