# CIF file generated by openbabel 2.4.1, see http://openbabel.sf.net
data_I
_chemical_name_common 'HAFQUC_clean'
_cell_length_a 6.6439
_cell_length_b 14.954
_cell_length_c 15.089
_cell_angle_alpha 90
_cell_angle_beta 90
_cell_angle_gamma 90.891
_space_group_name_H-M_alt 'P 1'
_space_group_name_Hall 'P 1'
loop_
    _symmetry_equiv_pos_as_xyz
    x,y,z
loop_
    _atom_site_label
    _atom_site_type_symbol
    _atom_site_fract_x
    _atom_site_fract_y
    _atom_site_fract_z
    _atom_site_occupancy
    Al1     Al   0.00000   0.00000   0.00000   1.000
    Al2     Al   0.50000   0.50000   0.50000   1.000
    Al3     Al   0.50000   0.00000   0.00000   1.000
    Al4     Al   0.00000   0.50000   0.50000   1.000
    H1      H    0.74914   0.89654   0.02753   1.000
    H2      H    0.56869   0.21458   0.37471   1.000
    H3      H    0.57627   0.11246   0.25942   1.000
    H4      H    0.93498   0.37892   0.23834   1.000
    H5      H    0.94267   0.27686   0.12300   1.000
    H6      H    0.75086   0.60346   0.52753   1.000
    H7      H    0.93131   0.28542   0.87471   1.000
    H8      H    0.92373   0.38754   0.75942   1.000
    H9      H    0.56502   0.12108   0.73834   1.000
    H10     H    0.55733   0.22314   0.62300   1.000
    H11     H    0.25086   0.10346   0.97247   1.000
    H12     H    0.43131   0.78542   0.62529   1.000
    H13     H    0.42373   0.88754   0.74058   1.000
    H14     H    0.06502   0.62108   0.76166   1.000
    H15     H    0.05733   0.72314   0.87700   1.000
    H16     H    0.24914   0.39654   0.47247   1.000
    H17     H    0.06869   0.71458   0.12529   1.000
    H18     H    0.07627   0.61246   0.24058   1.000
    H19     H    0.43498   0.87892   0.26166   1.000
    H20     H    0.44267   0.77686   0.37700   1.000
    C1      C    0.73591   0.37493   0.38966   1.000
    C2      C    0.74728   0.30753   0.31677   1.000
    C3      C    0.64274   0.22737   0.32380   1.000
    C4      C    0.75777   0.12059   0.10382   1.000
    C5      C    0.76078   0.18445   0.17995   1.000
    C6      C    0.64829   0.16604   0.25510   1.000
    C7      C    0.86166   0.32560   0.24229   1.000
    C8      C    0.86734   0.26432   0.17354   1.000
    C9      C    0.76409   0.12507   0.88966   1.000
    C10     C    0.75272   0.19247   0.81677   1.000
    C11     C    0.85726   0.27263   0.82380   1.000
    C12     C    0.74223   0.37941   0.60382   1.000
    C13     C    0.73922   0.31555   0.67995   1.000
    C14     C    0.85171   0.33396   0.75510   1.000
    C15     C    0.63834   0.17440   0.74229   1.000
    C16     C    0.63266   0.23568   0.67354   1.000
    C17     C    0.26409   0.62507   0.61034   1.000
    C18     C    0.25272   0.69247   0.68323   1.000
    C19     C    0.35726   0.77263   0.67620   1.000
    C20     C    0.24223   0.87941   0.89618   1.000
    C21     C    0.23922   0.81555   0.82005   1.000
    C22     C    0.35171   0.83396   0.74490   1.000
    C23     C    0.13834   0.67440   0.75771   1.000
    C24     C    0.13266   0.73568   0.82646   1.000
    C25     C    0.23591   0.87493   0.11034   1.000
    C26     C    0.24728   0.80753   0.18323   1.000
    C27     C    0.14274   0.72737   0.17620   1.000
    C28     C    0.25777   0.62059   0.39618   1.000
    C29     C    0.26078   0.68445   0.32005   1.000
    C30     C    0.14829   0.66604   0.24490   1.000
    C31     C    0.36166   0.82560   0.25771   1.000
    C32     C    0.36734   0.76432   0.32646   1.000
    O1      O    0.75077   0.94799   0.01019   1.000
    O2      O    0.92500   0.09544   0.07478   1.000
    O3      O    0.88399   0.42765   0.39896   1.000
    O4      O    0.58819   0.09544   0.07545   1.000
    O5      O    0.57943   0.37391   0.43677   1.000
    O6      O    0.74923   0.55201   0.51019   1.000
    O7      O    0.57500   0.40456   0.57478   1.000
    O8      O    0.61601   0.07235   0.89896   1.000
    O9      O    0.91181   0.40456   0.57545   1.000
    O10     O    0.92057   0.12609   0.93677   1.000
    O11     O    0.24923   0.05201   0.98981   1.000
    O12     O    0.07500   0.90456   0.92522   1.000
    O13     O    0.11601   0.57235   0.60104   1.000
    O14     O    0.41181   0.90456   0.92455   1.000
    O15     O    0.42057   0.62609   0.56323   1.000
    O16     O    0.25077   0.44799   0.48981   1.000
    O17     O    0.42500   0.59544   0.42522   1.000
    O18     O    0.38399   0.92765   0.10104   1.000
    O19     O    0.08819   0.59544   0.42455   1.000
    O20     O    0.07943   0.87391   0.06323   1.000
