data_functionalizedCrystal
_audit_creation_method	'EQeq! by Chris Wilmer'
_symmetry_space_group_name_H-M	'P1'
_symmetry_Int_Tables_number	1
_symmetry_cell_setting	triclinic
loop_
_symmetry_equiv_pos_as_xyz
  x,y,z
_cell_length_a	15.085
_cell_length_b	15.085
_cell_length_c	18.906
_cell_angle_alpha	90
_cell_angle_beta	90
_cell_angle_gamma	90
loop_
_atom_site_label
_atom_site_type_symbol
_atom_site_fract_x
_atom_site_fract_y
_atom_site_fract_z
_atom_site_charge
Mof_O 	O 	0.62141	0.55569	0.94102	-0.399
Mof_C 	C 	0.7647	0.6709	0.93632	0.054
Mof_H 	H 	0.7439	0.6475	0.8927	0.045
Mof_C 	C 	0.558	0.572	0.7921	0.029
Mof_H 	H 	0.579	0.601	0.813	0.028
Mof_H 	H 	0.51	0.631	0.816	0.035
Mof_C 	C 	0.085	0.978	0.2926	0.027
Mof_C 	C 	0.083	0.049	0.2895	-0.028
Mof_C 	C 	0.0936	0.015	0.2882	0.439
Mof_O 	O 	0.12141	0.05569	0.44102	-0.495
Mof_C 	C 	0.2647	0.1709	0.43632	-0.006
Mof_H 	H 	0.2439	0.1475	0.3927	0.023
Mof_C 	C 	0.058	0.072	0.2921	-0.427
Mof_H 	H 	0.079	0.101	0.313	0.303
Mof_H 	H 	0.01	0.131	0.316	0.016
Mof_C 	C 	0.585	0.478	0.7926	-0.003
Mof_C 	C 	0.583	0.549	0.7895	-0.032
Mof_C 	C 	0.5936	0.515	0.7882	-0.042
Mof_O 	O 	0.37859	0.44431	0.94102	-0.405
Mof_C 	C 	0.2353	0.3291	0.93632	0.013
Mof_H 	H 	0.2561	0.3525	0.8927	0.037
Mof_C 	C 	0.442	0.428	0.7921	0.005
Mof_H 	H 	0.421	0.399	0.813	0.027
Mof_H 	H 	0.49	0.369	0.816	0.045
Mof_C 	C 	0.915	0.022	0.2926	-0.149
Mof_C 	C 	0.917	0.951	0.2895	0.08
Mof_C 	C 	0.9064	0.985	0.2882	-0.42
Mof_O 	O 	0.87859	0.94431	0.44102	-0.363
Mof_C 	C 	0.7353	0.8291	0.43632	-0.026
Mof_H 	H 	0.7561	0.8525	0.3927	0.072
Mof_C 	C 	0.942	0.928	0.2921	0.429
Mof_H 	H 	0.921	0.899	0.313	-0.246
Mof_H 	H 	0.99	0.869	0.316	0.052
Mof_C 	C 	0.415	0.522	0.7926	-0.015
Mof_C 	C 	0.417	0.451	0.7895	0.002
Mof_C 	C 	0.4064	0.485	0.7882	-0.013
Mof_O 	O 	0.44431	0.62141	0.94102	-0.401
Mof_C 	C 	0.3291	0.7647	0.93632	0.038
Mof_H 	H 	0.3525	0.7439	0.8927	0.043
Mof_C 	C 	0.428	0.558	0.7921	0.005
Mof_H 	H 	0.399	0.579	0.813	0.041
Mof_H 	H 	0.369	0.51	0.816	0.029
Mof_C 	C 	0.022	0.085	0.2926	-0.349
Mof_C 	C 	0.951	0.083	0.2895	0.49
Mof_C 	C 	0.985	0.0936	0.2882	0.031
Mof_O 	O 	0.94431	0.12141	0.44102	-0.413
Mof_C 	C 	0.8291	0.2647	0.43632	-0.019
Mof_H 	H 	0.8525	0.2439	0.3927	0.055
Mof_C 	C 	0.928	0.058	0.2921	0.137
Mof_H 	H 	0.899	0.079	0.313	-0.197
Mof_H 	H 	0.869	0.01	0.316	0.219
Mof_C 	C 	0.522	0.585	0.7926	0.017
Mof_C 	C 	0.451	0.583	0.7895	-0.029
Mof_C 	C 	0.485	0.5936	0.7882	-0.026
Mof_O 	O 	0.55569	0.37859	0.94102	-0.404
Mof_C 	C 	0.6709	0.2353	0.93632	0.031
Mof_H 	H 	0.6475	0.2561	0.8927	0.038
Mof_C 	C 	0.572	0.442	0.7921	0.028
Mof_H 	H 	0.601	0.421	0.813	0.014
Mof_H 	H 	0.631	0.49	0.816	0.051
Mof_C 	C 	0.978	0.915	0.2926	0.259
Mof_C 	C 	0.049	0.917	0.2895	-0.404
Mof_C 	C 	0.015	0.9064	0.2882	-0.028
Mof_O 	O 	0.05569	0.87859	0.44102	-0.434
Mof_C 	C 	0.1709	0.7353	0.43632	-0.014
Mof_H 	H 	0.1475	0.7561	0.3927	0.043
Mof_C 	C 	0.072	0.942	0.2921	-0.115
Mof_H 	H 	0.101	0.921	0.313	0.242
Mof_H 	H 	0.131	0.99	0.316	-0.129
Mof_C 	C 	0.478	0.415	0.7926	-0.035
Mof_C 	C 	0.549	0.417	0.7895	-0
Mof_C 	C 	0.515	0.4064	0.7882	-0.029
Mof_O 	O 	0.37859	0.55569	0.55898	-0.448
Mof_C 	C 	0.2353	0.6709	0.56368	-0.016
Mof_H 	H 	0.2561	0.6475	0.6073	0.047
Mof_C 	C 	0.442	0.572	0.7079	0.027
Mof_H 	H 	0.421	0.601	0.687	0.013
Mof_H 	H 	0.49	0.631	0.684	0.05
Mof_C 	C 	0.915	0.978	0.2074	0.26
Mof_C 	C 	0.917	0.049	0.2105	-0.405
Mof_C 	C 	0.9064	0.015	0.2118	-0.03
Mof_O 	O 	0.87859	0.05569	0.05898	-0.428
Mof_C 	C 	0.7353	0.1709	0.06368	-0.012
Mof_H 	H 	0.7561	0.1475	0.1073	0.042
Mof_C 	C 	0.942	0.072	0.2079	-0.115
Mof_H 	H 	0.921	0.101	0.187	0.241
Mof_H 	H 	0.99	0.131	0.184	-0.131
Mof_C 	C 	0.415	0.478	0.7074	-0.038
Mof_C 	C 	0.417	0.549	0.7105	0.002
Mof_C 	C 	0.4064	0.515	0.7118	-0.028
Mof_O 	O 	0.62141	0.44431	0.55898	-0.446
Mof_C 	C 	0.7647	0.3291	0.56368	-0.009
Mof_H 	H 	0.7439	0.3525	0.6073	0.051
Mof_C 	C 	0.558	0.428	0.7079	0.004
Mof_H 	H 	0.579	0.399	0.687	0.04
Mof_H 	H 	0.51	0.369	0.684	0.028
Mof_C 	C 	0.085	0.022	0.2074	-0.352
Mof_C 	C 	0.083	0.951	0.2105	0.494
Mof_C 	C 	0.0936	0.985	0.2118	0.034
Mof_O 	O 	0.12141	0.94431	0.05898	-0.408
Mof_C 	C 	0.2647	0.8291	0.06368	-0.017
Mof_H 	H 	0.2439	0.8525	0.1073	0.053
Mof_C 	C 	0.058	0.928	0.2079	0.135
Mof_H 	H 	0.079	0.899	0.187	-0.197
Mof_H 	H 	0.01	0.869	0.184	0.22
Mof_C 	C 	0.585	0.522	0.7074	0.015
Mof_C 	C 	0.583	0.451	0.7105	-0.027
Mof_C 	C 	0.5936	0.485	0.7118	-0.025
Mof_O 	O 	0.55569	0.62141	0.55898	-0.444
Mof_C 	C 	0.6709	0.7647	0.56368	0.007
Mof_H 	H 	0.6475	0.7439	0.6073	0.052
Mof_C 	C 	0.572	0.558	0.7079	0.027
Mof_H 	H 	0.601	0.579	0.687	0.026
Mof_H 	H 	0.631	0.51	0.684	0.034
Mof_C 	C 	0.978	0.085	0.2074	0.028
Mof_C 	C 	0.049	0.083	0.2105	-0.029
Mof_C 	C 	0.015	0.0936	0.2118	0.44
Mof_O 	O 	0.05569	0.12141	0.05898	-0.489
Mof_C 	C 	0.1709	0.2647	0.06368	-0.004
Mof_H 	H 	0.1475	0.2439	0.1073	0.021
Mof_C 	C 	0.072	0.058	0.2079	-0.429
Mof_H 	H 	0.101	0.079	0.187	0.304
Mof_H 	H 	0.131	0.01	0.184	0.015
Mof_C 	C 	0.478	0.585	0.7074	-0.005
Mof_C 	C 	0.549	0.583	0.7105	-0.03
Mof_C 	C 	0.515	0.5936	0.7118	-0.041
Mof_O 	O 	0.44431	0.37859	0.55898	-0.45
Mof_C 	C 	0.3291	0.2353	0.56368	-0.033
Mof_H 	H 	0.3525	0.2561	0.6073	0.046
Mof_C 	C 	0.428	0.442	0.7079	0.004
Mof_H 	H 	0.399	0.421	0.687	0.027
Mof_H 	H 	0.369	0.49	0.684	0.044
Mof_C 	C 	0.022	0.915	0.2074	-0.154
Mof_C 	C 	0.951	0.917	0.2105	0.083
Mof_C 	C 	0.985	0.9064	0.2118	-0.419
Mof_O 	O 	0.94431	0.87859	0.05898	-0.358
Mof_C 	C 	0.8291	0.7353	0.06368	-0.023
Mof_H 	H 	0.8525	0.7561	0.1073	0.07
Mof_C 	C 	0.928	0.942	0.2079	0.43
Mof_H 	H 	0.899	0.921	0.187	-0.248
Mof_H 	H 	0.869	0.99	0.184	0.052
Mof_C 	C 	0.522	0.415	0.7074	-0.018
Mof_C 	C 	0.451	0.417	0.7105	0.005
Mof_C 	C 	0.485	0.4064	0.7118	-0.012
Mof_O 	O 	0.37859	0.44431	0.05898	-0.445
Mof_C 	C 	0.2353	0.3291	0.06368	-0.031
Mof_H 	H 	0.2561	0.3525	0.1073	0.043
Mof_C 	C 	0.442	0.428	0.2079	0.003
Mof_H 	H 	0.421	0.399	0.187	0.026
Mof_H 	H 	0.49	0.369	0.184	0.043
Mof_C 	C 	0.915	0.022	0.7074	-0.148
Mof_C 	C 	0.917	0.951	0.7105	0.08
Mof_C 	C 	0.9064	0.985	0.7118	-0.42
Mof_O 	O 	0.87859	0.94431	0.55898	-0.363
Mof_C 	C 	0.7353	0.8291	0.56368	-0.025
Mof_H 	H 	0.7561	0.8525	0.6073	0.074
Mof_C 	C 	0.942	0.928	0.7079	0.43
Mof_H 	H 	0.921	0.899	0.687	-0.245
Mof_H 	H 	0.99	0.869	0.684	0.053
Mof_C 	C 	0.415	0.522	0.2074	-0.02
Mof_C 	C 	0.417	0.451	0.2105	0.007
Mof_C 	C 	0.4064	0.485	0.2118	-0.011
Mof_O 	O 	0.62141	0.55569	0.05898	-0.439
Mof_C 	C 	0.7647	0.6709	0.06368	0.009
Mof_H 	H 	0.7439	0.6475	0.1073	0.049
Mof_C 	C 	0.558	0.572	0.2079	0.026
Mof_H 	H 	0.579	0.601	0.187	0.025
Mof_H 	H 	0.51	0.631	0.184	0.032
Mof_C 	C 	0.085	0.978	0.7074	0.027
Mof_C 	C 	0.083	0.049	0.7105	-0.03
Mof_C 	C 	0.0936	0.015	0.7118	0.439
Mof_O 	O 	0.12141	0.05569	0.55898	-0.494
Mof_C 	C 	0.2647	0.1709	0.56368	-0.006
Mof_H 	H 	0.2439	0.1475	0.6073	0.024
Mof_C 	C 	0.058	0.072	0.7079	-0.427
Mof_H 	H 	0.079	0.101	0.687	0.304
Mof_H 	H 	0.01	0.131	0.684	0.017
Mof_C 	C 	0.585	0.478	0.2074	-0.008
Mof_C 	C 	0.583	0.549	0.2105	-0.027
Mof_C 	C 	0.5936	0.515	0.2118	-0.04
Mof_O 	O 	0.55569	0.37859	0.05898	-0.443
Mof_C 	C 	0.6709	0.2353	0.06368	-0.014
Mof_H 	H 	0.6475	0.2561	0.1073	0.044
Mof_C 	C 	0.572	0.442	0.2079	0.026
Mof_H 	H 	0.601	0.421	0.187	0.012
Mof_H 	H 	0.631	0.49	0.184	0.049
Mof_C 	C 	0.978	0.915	0.7074	0.26
Mof_C 	C 	0.049	0.917	0.7105	-0.405
Mof_C 	C 	0.015	0.9064	0.7118	-0.028
Mof_O 	O 	0.05569	0.87859	0.55898	-0.433
Mof_C 	C 	0.1709	0.7353	0.56368	-0.014
Mof_H 	H 	0.1475	0.7561	0.6073	0.045
Mof_C 	C 	0.072	0.942	0.7079	-0.115
Mof_H 	H 	0.101	0.921	0.687	0.243
Mof_H 	H 	0.131	0.99	0.684	-0.128
Mof_C 	C 	0.478	0.415	0.2074	-0.04
Mof_C 	C 	0.549	0.417	0.2105	0.004
Mof_C 	C 	0.515	0.4064	0.2118	-0.027
Mof_O 	O 	0.44431	0.62141	0.05898	-0.441
Mof_C 	C 	0.3291	0.7647	0.06368	-0.007
Mof_H 	H 	0.3525	0.7439	0.1073	0.048
Mof_C 	C 	0.428	0.558	0.2079	0.003
Mof_H 	H 	0.399	0.579	0.187	0.039
Mof_H 	H 	0.369	0.51	0.184	0.027
Mof_C 	C 	0.022	0.085	0.7074	-0.348
Mof_C 	C 	0.951	0.083	0.7105	0.49
Mof_C 	C 	0.985	0.0936	0.7118	0.031
Mof_O 	O 	0.94431	0.12141	0.55898	-0.413
Mof_C 	C 	0.8291	0.2647	0.56368	-0.019
Mof_H 	H 	0.8525	0.2439	0.6073	0.056
Mof_C 	C 	0.928	0.058	0.7079	0.138
Mof_H 	H 	0.899	0.079	0.687	-0.197
Mof_H 	H 	0.869	0.01	0.684	0.22
Mof_C 	C 	0.522	0.585	0.2074	0.012
Mof_C 	C 	0.451	0.583	0.2105	-0.025
Mof_C 	C 	0.485	0.5936	0.2118	-0.024
Mof_O 	O 	0.62141	0.44431	0.44102	-0.446
Mof_C 	C 	0.7647	0.3291	0.43632	-0.009
Mof_H 	H 	0.7439	0.3525	0.3927	0.05
Mof_C 	C 	0.558	0.428	0.2921	0.003
Mof_H 	H 	0.579	0.399	0.313	0.039
Mof_H 	H 	0.51	0.369	0.316	0.028
Mof_C 	C 	0.085	0.022	0.7926	-0.347
Mof_C 	C 	0.083	0.951	0.7895	0.49
Mof_C 	C 	0.0936	0.985	0.7882	0.032
Mof_O 	O 	0.12141	0.94431	0.94102	-0.37
Mof_C 	C 	0.2647	0.8291	0.93632	0.027
Mof_H 	H 	0.2439	0.8525	0.8927	0.047
Mof_C 	C 	0.058	0.928	0.7921	0.137
Mof_H 	H 	0.079	0.899	0.813	-0.196
Mof_H 	H 	0.01	0.869	0.816	0.222
Mof_C 	C 	0.585	0.522	0.2926	0.014
Mof_C 	C 	0.583	0.451	0.2895	-0.027
Mof_C 	C 	0.5936	0.485	0.2882	-0.025
Mof_O 	O 	0.37859	0.55569	0.44102	-0.448
Mof_C 	C 	0.2353	0.6709	0.43632	-0.016
Mof_H 	H 	0.2561	0.6475	0.3927	0.046
Mof_C 	C 	0.442	0.572	0.2921	0.027
Mof_H 	H 	0.421	0.601	0.313	0.012
Mof_H 	H 	0.49	0.631	0.316	0.049
Mof_C 	C 	0.915	0.978	0.7926	0.264
Mof_C 	C 	0.917	0.049	0.7895	-0.41
Mof_C 	C 	0.9064	0.015	0.7882	-0.032
Mof_O 	O 	0.87859	0.05569	0.94102	-0.39
Mof_C 	C 	0.7353	0.1709	0.93632	0.032
Mof_H 	H 	0.7561	0.1475	0.8927	0.036
Mof_C 	C 	0.942	0.072	0.7921	-0.113
Mof_H 	H 	0.921	0.101	0.813	0.243
Mof_H 	H 	0.99	0.131	0.816	-0.129
Mof_C 	C 	0.415	0.478	0.2926	-0.038
Mof_C 	C 	0.417	0.549	0.2895	0.002
Mof_C 	C 	0.4064	0.515	0.2882	-0.028
Mof_O 	O 	0.44431	0.37859	0.44102	-0.45
Mof_C 	C 	0.3291	0.2353	0.43632	-0.034
Mof_H 	H 	0.3525	0.2561	0.3927	0.045
Mof_C 	C 	0.428	0.442	0.2921	0.004
Mof_H 	H 	0.399	0.421	0.313	0.026
Mof_H 	H 	0.369	0.49	0.316	0.044
Mof_C 	C 	0.022	0.915	0.7926	-0.149
Mof_C 	C 	0.951	0.917	0.7895	0.079
Mof_C 	C 	0.985	0.9064	0.7882	-0.422
Mof_O 	O 	0.94431	0.87859	0.94102	-0.32
Mof_C 	C 	0.8291	0.7353	0.93632	0.021
Mof_H 	H 	0.8525	0.7561	0.8927	0.065
Mof_C 	C 	0.928	0.942	0.7921	0.432
Mof_H 	H 	0.899	0.921	0.813	-0.247
Mof_H 	H 	0.869	0.99	0.816	0.054
Mof_C 	C 	0.522	0.415	0.2926	-0.018
Mof_C 	C 	0.451	0.417	0.2895	0.005
Mof_C 	C 	0.485	0.4064	0.2882	-0.012
Mof_O 	O 	0.55569	0.62141	0.44102	-0.444
Mof_C 	C 	0.6709	0.7647	0.43632	0.006
Mof_H 	H 	0.6475	0.7439	0.3927	0.051
Mof_C 	C 	0.572	0.558	0.2921	0.026
Mof_H 	H 	0.601	0.579	0.313	0.026
Mof_H 	H 	0.631	0.51	0.316	0.033
Mof_C 	C 	0.978	0.085	0.7926	0.033
Mof_C 	C 	0.049	0.083	0.7895	-0.034
Mof_C 	C 	0.015	0.0936	0.7882	0.438
Mof_O 	O 	0.05569	0.12141	0.94102	-0.451
Mof_C 	C 	0.1709	0.2647	0.93632	0.04
Mof_H 	H 	0.1475	0.2439	0.8927	0.016
Mof_C 	C 	0.072	0.058	0.7921	-0.428
Mof_H 	H 	0.101	0.079	0.813	0.306
Mof_H 	H 	0.131	0.01	0.816	0.017
Mof_C 	C 	0.478	0.585	0.2926	-0.006
Mof_C 	C 	0.549	0.583	0.2895	-0.029
Mof_C 	C 	0.515	0.5936	0.2882	-0.041
Mof_Co	Co	0.5	0.5	0.92903	1.147
Mof_N 	N 	0.5	0.5	0.8184	-0.187
Mof_Co	Co	-9.71913e-33	-5.86759e-33	0.42903	1.069
Mof_N 	N 	-1.4376e-33	-2.9338e-33	0.3184	-0.286
Mof_Co	Co	0.5	0.5	0.57097	1.143
Mof_N 	N 	0.5	0.5	0.6816	-0.186
Mof_Co	Co	3.33496e-34	0	0.07097	1.062
Mof_N 	N 	8.53359e-34	0	0.1816	-0.286
Mof_Co	Co	0.5	0.5	0.07097	1.135
Mof_N 	N 	0.5	0.5	0.1816	-0.185
Mof_Co	Co	8.55065e-33	-5.86759e-33	0.57097	1.069
Mof_N 	N 	-2.66468e-33	0	0.6816	-0.287
Mof_Co	Co	0.5	0.5	0.42903	1.143
Mof_N 	N 	0.5	0.5	0.3184	-0.185
Mof_Co	Co	-7.36957e-33	-1.17352e-32	0.92903	1.074
Mof_N 	N 	-7.88943e-33	-1.17352e-32	0.8184	-0.288
Mof_C 	C 	0.6527	0.5784	-0	0.32
Mof_C 	C 	0.7298	0.6395	-0	-0.123
Mof_C 	C 	0.1527	0.0784	0.5	0.366
Mof_C 	C 	0.2298	0.1395	0.5	-0.11
Mof_C 	C 	0.3473	0.4216	-0	0.308
Mof_C 	C 	0.2702	0.3605	-0	-0.117
Mof_C 	C 	0.8473	0.9216	0.5	0.345
Mof_C 	C 	0.7702	0.8605	0.5	-0.041
Mof_C 	C 	0.4216	0.6527	-0	0.315
Mof_C 	C 	0.3605	0.7298	-0	-0.12
Mof_C 	C 	0.9216	0.1527	0.5	0.35
Mof_C 	C 	0.8605	0.2298	0.5	-0.066
Mof_C 	C 	0.5784	0.3473	-0	0.313
Mof_C 	C 	0.6395	0.2702	-0	-0.121
Mof_C 	C 	0.0784	0.8473	0.5	0.359
Mof_C 	C 	0.1395	0.7702	0.5	-0.08
Mof_C 	C 	0.3473	0.5784	0.5	0.362
Mof_C 	C 	0.2702	0.6395	0.5	-0.079
Mof_C 	C 	0.8473	0.0784	-0	0.311
Mof_C 	C 	0.7702	0.1395	-0	-0.121
Mof_C 	C 	0.6527	0.4216	0.5	0.365
Mof_C 	C 	0.7298	0.3605	0.5	-0.078
Mof_C 	C 	0.1527	0.9216	-0	0.302
Mof_C 	C 	0.2298	0.8605	-0	-0.108
Mof_C 	C 	0.5784	0.6527	0.5	0.369
Mof_C 	C 	0.6395	0.7298	0.5	-0.081
Mof_C 	C 	0.0784	0.1527	-0	0.318
Mof_C 	C 	0.1395	0.2298	-0	-0.151
Mof_C 	C 	0.4216	0.3473	0.5	0.357
Mof_C 	C 	0.3605	0.2702	0.5	-0.075
Mof_C 	C 	0.9216	0.8473	-0	0.296
Mof_C 	C 	0.8605	0.7702	-0	-0.083
_end
