data_functionalizedCrystal
_audit_creation_method	'EQeq! by Chris Wilmer'
_symmetry_space_group_name_H-M	'P1'
_symmetry_Int_Tables_number	1
_symmetry_cell_setting	triclinic
loop_
_symmetry_equiv_pos_as_xyz
  x,y,z
_cell_length_a	38.741
_cell_length_b	38.741
_cell_length_c	38.741
_cell_angle_alpha	90
_cell_angle_beta	90
_cell_angle_gamma	90
loop_
_atom_site_label
_atom_site_type_symbol
_atom_site_fract_x
_atom_site_fract_y
_atom_site_fract_z
_atom_site_charge
Mof_Cl	Cl	0.7105	0.9203	0.2916	2.169
Mof_N 	N 	0.7257	0.9885	0.2277	-0.174
Mof_C 	C 	0.726	0.9096	0.2243	-0.181
Mof_C 	C 	0.7353	0.0213	0.2387	0.057
Mof_C 	C 	0.7004	0.9847	0.2027	0.096
Mof_O 	O 	0.7131	0.8861	0.2103	-0.148
Mof_C 	C 	0.7195	0.0503	0.2247	0.016
Mof_C 	C 	0.6846	0.0137	0.1886	-0.037
Mof_C 	C 	0.6941	0.0465	0.1996	0.025
Mof_C 	C 	0.6575	0.013	0.1607	0.04
Mof_C 	C 	0.6674	0.0118	0.1263	-0.031
Mof_C 	C 	0.6226	0.0133	0.1694	-0.027
Mof_C 	C 	0.6425	0.0111	0.1004	0.061
Mof_C 	C 	0.5977	0.0125	0.1435	0.066
Mof_C 	C 	0.6077	0.0114	0.1091	-0.095
Mof_C 	C 	0.5809	0.005	0.0807	0.355
Mof_O 	O 	0.5935	0.0036	0.0476	-0.605
Mof_O 	O 	0.5483	0.0025	0.0937	-0.586
Mof_Re	Re	0.7927	0.0216	0.2075	0.617
Mof_C 	C 	0.7946	0.0701	0.1987	-0.021
Mof_O 	O 	0.796	0.1002	0.202	-0.114
Mof_C 	C 	0.7902	0.0201	0.1582	-0.046
Mof_O 	O 	0.788	0.027	0.1288	-0.126
Mof_C 	C 	0.8408	0.0252	0.1979	-0.026
Mof_O 	O 	0.8702	0.0275	0.192	-0.118
Mof_C 	C 	0.6832	0.015	0.1877	-0.049
Mof_C 	C 	0.7176	0.0165	0.1776	0.06
Mof_C 	C 	0.7435	0.0178	0.2023	-0.196
Mof_C 	C 	0.7351	0.0176	0.2372	-0.014
Mof_C 	C 	0.7007	0.0162	0.2473	-0.224
Mof_C 	C 	0.6747	0.0149	0.2226	0.082
Mof_C 	C 	0.7129	0.9359	0.2817	-2.37
Mof_O 	O 	0.691	0.932	0.3012	-0.531
Mof_Cl	Cl	0.7142	0.9625	0.2871	0.599
Mof_Cl	Cl	0.7105	0.4203	0.7916	2.194
Mof_N 	N 	0.7257	0.4885	0.7277	-0.186
Mof_C 	C 	0.726	0.4096	0.7243	-0.184
Mof_C 	C 	0.7353	0.5213	0.7387	0.065
Mof_C 	C 	0.7004	0.4847	0.7027	0.06
Mof_O 	O 	0.7131	0.3861	0.7103	-0.15
Mof_C 	C 	0.7195	0.5503	0.7247	0.012
Mof_C 	C 	0.6846	0.5137	0.6886	-0.032
Mof_C 	C 	0.6941	0.5465	0.6996	0.018
Mof_C 	C 	0.6575	0.513	0.6607	0.036
Mof_C 	C 	0.6674	0.5118	0.6263	-0.024
Mof_C 	C 	0.6226	0.5133	0.6694	-0.021
Mof_C 	C 	0.6425	0.5111	0.6004	0.068
Mof_C 	C 	0.5977	0.5125	0.6435	0.07
Mof_C 	C 	0.6077	0.5114	0.6091	-0.094
Mof_C 	C 	0.5809	0.505	0.5807	0.357
Mof_O 	O 	0.5935	0.5036	0.5476	-0.589
Mof_O 	O 	0.5483	0.5025	0.5937	-0.577
Mof_Re	Re	0.7927	0.5216	0.7075	0.625
Mof_C 	C 	0.7946	0.5701	0.6987	-0.023
Mof_O 	O 	0.796	0.6002	0.702	-0.113
Mof_C 	C 	0.7902	0.5201	0.6582	-0.041
Mof_O 	O 	0.788	0.527	0.6288	-0.118
Mof_C 	C 	0.8408	0.5252	0.6979	-0.022
Mof_O 	O 	0.8702	0.5275	0.692	-0.111
Mof_C 	C 	0.6832	0.515	0.6877	-0.039
Mof_C 	C 	0.7176	0.5165	0.6776	0.071
Mof_C 	C 	0.7435	0.5178	0.7023	-0.187
Mof_C 	C 	0.7351	0.5176	0.7372	-0.015
Mof_C 	C 	0.7007	0.5162	0.7473	-0.215
Mof_C 	C 	0.6747	0.5149	0.7226	0.094
Mof_C 	C 	0.7129	0.4359	0.7817	-2.39
Mof_O 	O 	0.691	0.432	0.8012	-0.543
Mof_Cl	Cl	0.7142	0.4625	0.7871	0.59
Mof_Cl	Cl	0.2105	0.9203	0.7916	2.167
Mof_N 	N 	0.2257	0.9885	0.7277	-0.175
Mof_C 	C 	0.226	0.9096	0.7243	-0.182
Mof_C 	C 	0.2353	0.0213	0.7387	0.056
Mof_C 	C 	0.2004	0.9847	0.7027	0.094
Mof_O 	O 	0.2131	0.8861	0.7103	-0.149
Mof_C 	C 	0.2195	0.0503	0.7247	0.015
Mof_C 	C 	0.1846	0.0137	0.6886	-0.038
Mof_C 	C 	0.1941	0.0465	0.6996	0.024
Mof_C 	C 	0.1575	0.013	0.6607	0.039
Mof_C 	C 	0.1674	0.0118	0.6263	-0.03
Mof_C 	C 	0.1226	0.0133	0.6694	-0.029
Mof_C 	C 	0.1425	0.0111	0.6004	0.063
Mof_C 	C 	0.0977	0.0125	0.6435	0.063
Mof_C 	C 	0.1077	0.0114	0.6091	-0.095
Mof_C 	C 	0.0809	0.005	0.5807	0.355
Mof_O 	O 	0.0935	0.0036	0.5476	-0.599
Mof_O 	O 	0.0483	0.0025	0.5937	-0.592
Mof_Re	Re	0.2927	0.0216	0.7075	0.617
Mof_C 	C 	0.2946	0.0701	0.6987	-0.021
Mof_O 	O 	0.296	0.1002	0.702	-0.114
Mof_C 	C 	0.2902	0.0201	0.6582	-0.046
Mof_O 	O 	0.288	0.027	0.6288	-0.124
Mof_C 	C 	0.3408	0.0252	0.6979	-0.026
Mof_O 	O 	0.3702	0.0275	0.692	-0.12
Mof_C 	C 	0.1832	0.015	0.6877	-0.049
Mof_C 	C 	0.2176	0.0165	0.6776	0.061
Mof_C 	C 	0.2435	0.0178	0.7023	-0.196
Mof_C 	C 	0.2351	0.0176	0.7372	-0.014
Mof_C 	C 	0.2007	0.0162	0.7473	-0.224
Mof_C 	C 	0.1747	0.0149	0.7226	0.081
Mof_C 	C 	0.2129	0.9359	0.7817	-2.369
Mof_O 	O 	0.191	0.932	0.8012	-0.531
Mof_Cl	Cl	0.2142	0.9625	0.7871	0.598
Mof_Cl	Cl	0.2105	0.4203	0.2916	2.198
Mof_N 	N 	0.2257	0.4885	0.2277	-0.186
Mof_C 	C 	0.226	0.4096	0.2243	-0.185
Mof_C 	C 	0.2353	0.5213	0.2387	0.065
Mof_C 	C 	0.2004	0.4847	0.2027	0.059
Mof_O 	O 	0.2131	0.3861	0.2103	-0.153
Mof_C 	C 	0.2195	0.5503	0.2247	0.012
Mof_C 	C 	0.1846	0.5137	0.1886	-0.032
Mof_C 	C 	0.1941	0.5465	0.1996	0.018
Mof_C 	C 	0.1575	0.513	0.1607	0.036
Mof_C 	C 	0.1674	0.5118	0.1263	-0.025
Mof_C 	C 	0.1226	0.5133	0.1694	-0.023
Mof_C 	C 	0.1425	0.5111	0.1004	0.065
Mof_C 	C 	0.0977	0.5125	0.1435	0.067
Mof_C 	C 	0.1077	0.5114	0.1091	-0.094
Mof_C 	C 	0.0809	0.505	0.0807	0.357
Mof_O 	O 	0.0935	0.5036	0.0476	-0.596
Mof_O 	O 	0.0483	0.5025	0.0937	-0.583
Mof_Re	Re	0.2927	0.5216	0.2075	0.624
Mof_C 	C 	0.2946	0.5701	0.1987	-0.023
Mof_O 	O 	0.296	0.6002	0.202	-0.114
Mof_C 	C 	0.2902	0.5201	0.1582	-0.042
Mof_O 	O 	0.288	0.527	0.1288	-0.122
Mof_C 	C 	0.3408	0.5252	0.1979	-0.023
Mof_O 	O 	0.3702	0.5275	0.192	-0.116
Mof_C 	C 	0.1832	0.515	0.1877	-0.039
Mof_C 	C 	0.2176	0.5165	0.1776	0.07
Mof_C 	C 	0.2435	0.5178	0.2023	-0.187
Mof_C 	C 	0.2351	0.5176	0.2372	-0.015
Mof_C 	C 	0.2007	0.5162	0.2473	-0.214
Mof_C 	C 	0.1747	0.5149	0.2226	0.093
Mof_C 	C 	0.2129	0.4359	0.2817	-2.395
Mof_O 	O 	0.191	0.432	0.3012	-0.548
Mof_Cl	Cl	0.2142	0.4625	0.2871	0.592
Mof_Cl	Cl	0.2895	0.0797	0.2916	2.225
Mof_N 	N 	0.2743	0.0115	0.2277	-0.198
Mof_C 	C 	0.274	0.0904	0.2243	-0.189
Mof_C 	C 	0.2647	0.9787	0.2387	0.073
Mof_C 	C 	0.2996	0.0153	0.2027	0.024
Mof_O 	O 	0.2869	0.1139	0.2103	-0.155
Mof_C 	C 	0.2805	0.9497	0.2247	0.009
Mof_C 	C 	0.3154	0.9863	0.1886	-0.027
Mof_C 	C 	0.3059	0.9535	0.1996	0.011
Mof_C 	C 	0.3425	0.987	0.1607	0.034
Mof_C 	C 	0.3326	0.9882	0.1263	-0.019
Mof_C 	C 	0.3774	0.9867	0.1694	-0.015
Mof_C 	C 	0.3575	0.9889	0.1004	0.069
Mof_C 	C 	0.4023	0.9875	0.1435	0.074
Mof_C 	C 	0.3923	0.9886	0.1091	-0.093
Mof_C 	C 	0.4191	0.995	0.0807	0.359
Mof_O 	O 	0.4065	0.9964	0.0476	-0.585
Mof_O 	O 	0.4517	0.9975	0.0937	-0.566
Mof_Re	Re	0.2073	0.9784	0.2075	0.631
Mof_C 	C 	0.2054	0.9299	0.1987	-0.026
Mof_O 	O 	0.204	0.8998	0.202	-0.113
Mof_C 	C 	0.2098	0.9799	0.1582	-0.037
Mof_O 	O 	0.212	0.973	0.1288	-0.119
Mof_C 	C 	0.1592	0.9748	0.1979	-0.019
Mof_O 	O 	0.1298	0.9725	0.192	-0.114
Mof_C 	C 	0.3168	0.985	0.1877	-0.029
Mof_C 	C 	0.2824	0.9835	0.1776	0.081
Mof_C 	C 	0.2565	0.9822	0.2023	-0.178
Mof_C 	C 	0.2649	0.9824	0.2372	-0.016
Mof_C 	C 	0.2993	0.9838	0.2473	-0.206
Mof_C 	C 	0.3253	0.9851	0.2226	0.105
Mof_C 	C 	0.2871	0.0641	0.2817	-2.416
Mof_O 	O 	0.309	0.068	0.3012	-0.559
Mof_Cl	Cl	0.2858	0.0375	0.2871	0.584
Mof_Cl	Cl	0.2895	0.5797	0.7916	2.194
Mof_N 	N 	0.2743	0.5115	0.7277	-0.186
Mof_C 	C 	0.274	0.5904	0.7243	-0.185
Mof_C 	C 	0.2647	0.4787	0.7387	0.065
Mof_C 	C 	0.2996	0.5153	0.7027	0.06
Mof_O 	O 	0.2869	0.6139	0.7103	-0.151
Mof_C 	C 	0.2805	0.4497	0.7247	0.012
Mof_C 	C 	0.3154	0.4863	0.6886	-0.032
Mof_C 	C 	0.3059	0.4535	0.6996	0.018
Mof_C 	C 	0.3425	0.487	0.6607	0.037
Mof_C 	C 	0.3326	0.4882	0.6263	-0.024
Mof_C 	C 	0.3774	0.4867	0.6694	-0.021
Mof_C 	C 	0.3575	0.4889	0.6004	0.068
Mof_C 	C 	0.4023	0.4875	0.6435	0.07
Mof_C 	C 	0.3923	0.4886	0.6091	-0.094
Mof_C 	C 	0.4191	0.495	0.5807	0.357
Mof_O 	O 	0.4065	0.4964	0.5476	-0.589
Mof_O 	O 	0.4517	0.4975	0.5937	-0.576
Mof_Re	Re	0.2073	0.4784	0.7075	0.624
Mof_C 	C 	0.2054	0.4299	0.6987	-0.023
Mof_O 	O 	0.204	0.3998	0.702	-0.114
Mof_C 	C 	0.2098	0.4799	0.6582	-0.042
Mof_O 	O 	0.212	0.473	0.6288	-0.12
Mof_C 	C 	0.1592	0.4748	0.6979	-0.023
Mof_O 	O 	0.1298	0.4725	0.692	-0.118
Mof_C 	C 	0.3168	0.485	0.6877	-0.039
Mof_C 	C 	0.2824	0.4835	0.6776	0.071
Mof_C 	C 	0.2565	0.4822	0.7023	-0.187
Mof_C 	C 	0.2649	0.4824	0.7372	-0.015
Mof_C 	C 	0.2993	0.4838	0.7473	-0.215
Mof_C 	C 	0.3253	0.4851	0.7226	0.094
Mof_C 	C 	0.2871	0.5641	0.7817	-2.39
Mof_O 	O 	0.309	0.568	0.8012	-0.543
Mof_Cl	Cl	0.2858	0.5375	0.7871	0.59
Mof_Cl	Cl	0.7895	0.0797	0.7916	2.221
Mof_N 	N 	0.7743	0.0115	0.7277	-0.198
Mof_C 	C 	0.774	0.0904	0.7243	-0.187
Mof_C 	C 	0.7647	0.9787	0.7387	0.073
Mof_C 	C 	0.7996	0.0153	0.7027	0.026
Mof_O 	O 	0.7869	0.1139	0.7103	-0.152
Mof_C 	C 	0.7805	0.9497	0.7247	0.008
Mof_C 	C 	0.8154	0.9863	0.6886	-0.027
Mof_C 	C 	0.8059	0.9535	0.6996	0.011
Mof_C 	C 	0.8425	0.987	0.6607	0.034
Mof_C 	C 	0.8326	0.9882	0.6263	-0.017
Mof_C 	C 	0.8774	0.9867	0.6694	-0.013
Mof_C 	C 	0.8575	0.9889	0.6004	0.073
Mof_C 	C 	0.9023	0.9875	0.6435	0.078
Mof_C 	C 	0.8923	0.9886	0.6091	-0.093
Mof_C 	C 	0.9191	0.995	0.5807	0.359
Mof_O 	O 	0.9065	0.9964	0.5476	-0.579
Mof_O 	O 	0.9517	0.9975	0.5937	-0.559
Mof_Re	Re	0.7073	0.9784	0.7075	0.632
Mof_C 	C 	0.7054	0.9299	0.6987	-0.025
Mof_O 	O 	0.704	0.8998	0.702	-0.113
Mof_C 	C 	0.7098	0.9799	0.6582	-0.036
Mof_O 	O 	0.712	0.973	0.6288	-0.115
Mof_C 	C 	0.6592	0.9748	0.6979	-0.019
Mof_O 	O 	0.6298	0.9725	0.692	-0.109
Mof_C 	C 	0.8168	0.985	0.6877	-0.029
Mof_C 	C 	0.7824	0.9835	0.6776	0.082
Mof_C 	C 	0.7565	0.9822	0.7023	-0.179
Mof_C 	C 	0.7649	0.9824	0.7372	-0.016
Mof_C 	C 	0.7993	0.9838	0.7473	-0.206
Mof_C 	C 	0.8253	0.9851	0.7226	0.107
Mof_C 	C 	0.7871	0.0641	0.7817	-2.411
Mof_O 	O 	0.809	0.068	0.8012	-0.555
Mof_Cl	Cl	0.7858	0.0375	0.7871	0.582
Mof_Cl	Cl	0.7895	0.5797	0.2916	2.195
Mof_N 	N 	0.7743	0.5115	0.2277	-0.186
Mof_C 	C 	0.774	0.5904	0.2243	-0.185
Mof_C 	C 	0.7647	0.4787	0.2387	0.065
Mof_C 	C 	0.7996	0.5153	0.2027	0.06
Mof_O 	O 	0.7869	0.6139	0.2103	-0.151
Mof_C 	C 	0.7805	0.4497	0.2247	0.012
Mof_C 	C 	0.8154	0.4863	0.1886	-0.032
Mof_C 	C 	0.8059	0.4535	0.1996	0.018
Mof_C 	C 	0.8425	0.487	0.1607	0.037
Mof_C 	C 	0.8326	0.4882	0.1263	-0.025
Mof_C 	C 	0.8774	0.4867	0.1694	-0.02
Mof_C 	C 	0.8575	0.4889	0.1004	0.065
Mof_C 	C 	0.9023	0.4875	0.1435	0.073
Mof_C 	C 	0.8923	0.4886	0.1091	-0.094
Mof_C 	C 	0.9191	0.495	0.0807	0.357
Mof_O 	O 	0.9065	0.4964	0.0476	-0.595
Mof_O 	O 	0.9517	0.4975	0.0937	-0.57
Mof_Re	Re	0.7073	0.4784	0.2075	0.624
Mof_C 	C 	0.7054	0.4299	0.1987	-0.023
Mof_O 	O 	0.704	0.3998	0.202	-0.114
Mof_C 	C 	0.7098	0.4799	0.1582	-0.042
Mof_O 	O 	0.712	0.473	0.1288	-0.122
Mof_C 	C 	0.6592	0.4748	0.1979	-0.023
Mof_O 	O 	0.6298	0.4725	0.192	-0.116
Mof_C 	C 	0.8168	0.485	0.1877	-0.039
Mof_C 	C 	0.7824	0.4835	0.1776	0.07
Mof_C 	C 	0.7565	0.4822	0.2023	-0.187
Mof_C 	C 	0.7649	0.4824	0.2372	-0.015
Mof_C 	C 	0.7993	0.4838	0.2473	-0.215
Mof_C 	C 	0.8253	0.4851	0.2226	0.095
Mof_C 	C 	0.7871	0.5641	0.2817	-2.392
Mof_O 	O 	0.809	0.568	0.3012	-0.543
Mof_Cl	Cl	0.7858	0.5375	0.2871	0.591
Mof_Cl	Cl	0.2895	0.9203	0.7084	2.169
Mof_N 	N 	0.2743	0.9885	0.7723	-0.175
Mof_C 	C 	0.274	0.9096	0.7757	-0.181
Mof_C 	C 	0.2647	0.0213	0.7613	0.056
Mof_C 	C 	0.2996	0.9847	0.7973	0.096
Mof_O 	O 	0.2869	0.8861	0.7897	-0.147
Mof_C 	C 	0.2805	0.0503	0.7753	0.015
Mof_C 	C 	0.3154	0.0137	0.8114	-0.038
Mof_C 	C 	0.3059	0.0465	0.8004	0.024
Mof_C 	C 	0.3425	0.013	0.8393	0.039
Mof_C 	C 	0.3326	0.0118	0.8737	-0.028
Mof_C 	C 	0.3774	0.0133	0.8306	-0.027
Mof_C 	C 	0.3575	0.0111	0.8996	0.067
Mof_C 	C 	0.4023	0.0125	0.8565	0.066
Mof_C 	C 	0.3923	0.0114	0.8909	-0.095
Mof_C 	C 	0.4191	0.005	0.9193	0.355
Mof_O 	O 	0.4065	0.0036	0.9524	-0.591
Mof_O 	O 	0.4517	0.0025	0.9063	-0.586
Mof_Re	Re	0.2073	0.0216	0.7925	0.617
Mof_C 	C 	0.2054	0.0701	0.8013	-0.021
Mof_O 	O 	0.204	0.1002	0.798	-0.114
Mof_C 	C 	0.2098	0.0201	0.8418	-0.046
Mof_O 	O 	0.212	0.027	0.8712	-0.122
Mof_C 	C 	0.1592	0.0252	0.8021	-0.026
Mof_O 	O 	0.1298	0.0275	0.808	-0.122
Mof_C 	C 	0.3168	0.015	0.8123	-0.049
Mof_C 	C 	0.2824	0.0165	0.8224	0.062
Mof_C 	C 	0.2565	0.0178	0.7977	-0.196
Mof_C 	C 	0.2649	0.0176	0.7628	-0.014
Mof_C 	C 	0.2993	0.0162	0.7527	-0.224
Mof_C 	C 	0.3253	0.0149	0.7774	0.082
Mof_C 	C 	0.2871	0.9359	0.7183	-2.371
Mof_O 	O 	0.309	0.932	0.6988	-0.531
Mof_Cl	Cl	0.2858	0.9625	0.7129	0.599
Mof_Cl	Cl	0.2895	0.4203	0.2084	2.2
Mof_N 	N 	0.2743	0.4885	0.2723	-0.186
Mof_C 	C 	0.274	0.4096	0.2757	-0.185
Mof_C 	C 	0.2647	0.5213	0.2613	0.065
Mof_C 	C 	0.2996	0.4847	0.2973	0.06
Mof_O 	O 	0.2869	0.3861	0.2897	-0.151
Mof_C 	C 	0.2805	0.5503	0.2753	0.012
Mof_C 	C 	0.3154	0.5137	0.3114	-0.032
Mof_C 	C 	0.3059	0.5465	0.3004	0.018
Mof_C 	C 	0.3425	0.513	0.3393	0.037
Mof_C 	C 	0.3326	0.5118	0.3737	-0.024
Mof_C 	C 	0.3774	0.5133	0.3306	-0.021
Mof_C 	C 	0.3575	0.5111	0.3996	0.068
Mof_C 	C 	0.4023	0.5125	0.3565	0.07
Mof_C 	C 	0.3923	0.5114	0.3909	-0.094
Mof_C 	C 	0.4191	0.505	0.4193	0.357
Mof_O 	O 	0.4065	0.5036	0.4524	-0.589
Mof_O 	O 	0.4517	0.5025	0.4063	-0.577
Mof_Re	Re	0.2073	0.5216	0.2925	0.624
Mof_C 	C 	0.2054	0.5701	0.3013	-0.023
Mof_O 	O 	0.204	0.6002	0.298	-0.114
Mof_C 	C 	0.2098	0.5201	0.3418	-0.042
Mof_O 	O 	0.212	0.527	0.3712	-0.12
Mof_C 	C 	0.1592	0.5252	0.3021	-0.023
Mof_O 	O 	0.1298	0.5275	0.308	-0.118
Mof_C 	C 	0.3168	0.515	0.3123	-0.039
Mof_C 	C 	0.2824	0.5165	0.3224	0.071
Mof_C 	C 	0.2565	0.5178	0.2977	-0.187
Mof_C 	C 	0.2649	0.5176	0.2628	-0.015
Mof_C 	C 	0.2993	0.5162	0.2527	-0.215
Mof_C 	C 	0.3253	0.5149	0.2774	0.094
Mof_C 	C 	0.2871	0.4359	0.2183	-2.397
Mof_O 	O 	0.309	0.432	0.1988	-0.548
Mof_Cl	Cl	0.2858	0.4625	0.2129	0.593
Mof_Cl	Cl	0.7895	0.9203	0.2084	2.17
Mof_N 	N 	0.7743	0.9885	0.2723	-0.175
Mof_C 	C 	0.774	0.9096	0.2757	-0.181
Mof_C 	C 	0.7647	0.0213	0.2613	0.056
Mof_C 	C 	0.7996	0.9847	0.2973	0.096
Mof_O 	O 	0.7869	0.8861	0.2897	-0.147
Mof_C 	C 	0.7805	0.0503	0.2753	0.015
Mof_C 	C 	0.8154	0.0137	0.3114	-0.038
Mof_C 	C 	0.8059	0.0465	0.3004	0.024
Mof_C 	C 	0.8425	0.013	0.3393	0.039
Mof_C 	C 	0.8326	0.0118	0.3737	-0.03
Mof_C 	C 	0.8774	0.0133	0.3306	-0.026
Mof_C 	C 	0.8575	0.0111	0.3996	0.064
Mof_C 	C 	0.9023	0.0125	0.3565	0.069
Mof_C 	C 	0.8923	0.0114	0.3909	-0.095
Mof_C 	C 	0.9191	0.005	0.4193	0.355
Mof_O 	O 	0.9065	0.0036	0.4524	-0.598
Mof_O 	O 	0.9517	0.0025	0.4063	-0.579
Mof_Re	Re	0.7073	0.0216	0.2925	0.617
Mof_C 	C 	0.7054	0.0701	0.3013	-0.021
Mof_O 	O 	0.704	0.1002	0.298	-0.114
Mof_C 	C 	0.7098	0.0201	0.3418	-0.046
Mof_O 	O 	0.712	0.027	0.3712	-0.124
Mof_C 	C 	0.6592	0.0252	0.3021	-0.026
Mof_O 	O 	0.6298	0.0275	0.308	-0.12
Mof_C 	C 	0.8168	0.015	0.3123	-0.049
Mof_C 	C 	0.7824	0.0165	0.3224	0.061
Mof_C 	C 	0.7565	0.0178	0.2977	-0.196
Mof_C 	C 	0.7649	0.0176	0.2628	-0.014
Mof_C 	C 	0.7993	0.0162	0.2527	-0.224
Mof_C 	C 	0.8253	0.0149	0.2774	0.083
Mof_C 	C 	0.7871	0.9359	0.2183	-2.372
Mof_O 	O 	0.809	0.932	0.1988	-0.531
Mof_Cl	Cl	0.7858	0.9625	0.2129	0.6
Mof_Cl	Cl	0.7895	0.4203	0.7084	2.196
Mof_N 	N 	0.7743	0.4885	0.7723	-0.186
Mof_C 	C 	0.774	0.4096	0.7757	-0.184
Mof_C 	C 	0.7647	0.5213	0.7613	0.065
Mof_C 	C 	0.7996	0.4847	0.7973	0.061
Mof_O 	O 	0.7869	0.3861	0.7897	-0.148
Mof_C 	C 	0.7805	0.5503	0.7753	0.012
Mof_C 	C 	0.8154	0.5137	0.8114	-0.033
Mof_C 	C 	0.8059	0.5465	0.8004	0.018
Mof_C 	C 	0.8425	0.513	0.8393	0.037
Mof_C 	C 	0.8326	0.5118	0.8737	-0.022
Mof_C 	C 	0.8774	0.5133	0.8306	-0.019
Mof_C 	C 	0.8575	0.5111	0.8996	0.072
Mof_C 	C 	0.9023	0.5125	0.8565	0.074
Mof_C 	C 	0.8923	0.5114	0.8909	-0.094
Mof_C 	C 	0.9191	0.505	0.9193	0.357
Mof_O 	O 	0.9065	0.5036	0.9524	-0.582
Mof_O 	O 	0.9517	0.5025	0.9063	-0.569
Mof_Re	Re	0.7073	0.5216	0.7925	0.625
Mof_C 	C 	0.7054	0.5701	0.8013	-0.023
Mof_O 	O 	0.704	0.6002	0.798	-0.113
Mof_C 	C 	0.7098	0.5201	0.8418	-0.041
Mof_O 	O 	0.712	0.527	0.8712	-0.116
Mof_C 	C 	0.6592	0.5252	0.8021	-0.022
Mof_O 	O 	0.6298	0.5275	0.808	-0.113
Mof_C 	C 	0.8168	0.515	0.8123	-0.039
Mof_C 	C 	0.7824	0.5165	0.8224	0.072
Mof_C 	C 	0.7565	0.5178	0.7977	-0.187
Mof_C 	C 	0.7649	0.5176	0.7628	-0.015
Mof_C 	C 	0.7993	0.5162	0.7527	-0.215
Mof_C 	C 	0.8253	0.5149	0.7774	0.095
Mof_C 	C 	0.7871	0.4359	0.7183	-2.392
Mof_O 	O 	0.809	0.432	0.6988	-0.543
Mof_Cl	Cl	0.7858	0.4625	0.7129	0.591
Mof_Cl	Cl	0.7105	0.0797	0.7084	2.225
Mof_N 	N 	0.7257	0.0115	0.7723	-0.198
Mof_C 	C 	0.726	0.0904	0.7757	-0.187
Mof_C 	C 	0.7353	0.9787	0.7613	0.073
Mof_C 	C 	0.7004	0.0153	0.7973	0.026
Mof_O 	O 	0.7131	0.1139	0.7897	-0.152
Mof_C 	C 	0.7195	0.9497	0.7753	0.008
Mof_C 	C 	0.6846	0.9863	0.8114	-0.027
Mof_C 	C 	0.6941	0.9535	0.8004	0.011
Mof_C 	C 	0.6575	0.987	0.8393	0.034
Mof_C 	C 	0.6674	0.9882	0.8737	-0.016
Mof_C 	C 	0.6226	0.9867	0.8306	-0.015
Mof_C 	C 	0.6425	0.9889	0.8996	0.076
Mof_C 	C 	0.5977	0.9875	0.8565	0.075
Mof_C 	C 	0.6077	0.9886	0.8909	-0.093
Mof_C 	C 	0.5809	0.995	0.9193	0.359
Mof_O 	O 	0.5935	0.9964	0.9524	-0.572
Mof_O 	O 	0.5483	0.9975	0.9063	-0.566
Mof_Re	Re	0.7927	0.9784	0.7925	0.633
Mof_C 	C 	0.7946	0.9299	0.8013	-0.025
Mof_O 	O 	0.796	0.8998	0.798	-0.112
Mof_C 	C 	0.7902	0.9799	0.8418	-0.035
Mof_O 	O 	0.788	0.973	0.8712	-0.11
Mof_C 	C 	0.8408	0.9748	0.8021	-0.018
Mof_O 	O 	0.8702	0.9725	0.808	-0.104
Mof_C 	C 	0.6832	0.985	0.8123	-0.029
Mof_C 	C 	0.7176	0.9835	0.8224	0.083
Mof_C 	C 	0.7435	0.9822	0.7977	-0.179
Mof_C 	C 	0.7351	0.9824	0.7628	-0.016
Mof_C 	C 	0.7007	0.9838	0.7527	-0.206
Mof_C 	C 	0.6747	0.9851	0.7774	0.105
Mof_C 	C 	0.7129	0.0641	0.7183	-2.416
Mof_O 	O 	0.691	0.068	0.6988	-0.559
Mof_Cl	Cl	0.7142	0.0375	0.7129	0.583
Mof_Cl	Cl	0.7105	0.5797	0.2084	2.2
Mof_N 	N 	0.7257	0.5115	0.2723	-0.186
Mof_C 	C 	0.726	0.5904	0.2757	-0.185
Mof_C 	C 	0.7353	0.4787	0.2613	0.065
Mof_C 	C 	0.7004	0.5153	0.2973	0.06
Mof_O 	O 	0.7131	0.6139	0.2897	-0.151
Mof_C 	C 	0.7195	0.4497	0.2753	0.012
Mof_C 	C 	0.6846	0.4863	0.3114	-0.032
Mof_C 	C 	0.6941	0.4535	0.3004	0.018
Mof_C 	C 	0.6575	0.487	0.3393	0.037
Mof_C 	C 	0.6674	0.4882	0.3737	-0.024
Mof_C 	C 	0.6226	0.4867	0.3306	-0.021
Mof_C 	C 	0.6425	0.4889	0.3996	0.068
Mof_C 	C 	0.5977	0.4875	0.3565	0.07
Mof_C 	C 	0.6077	0.4886	0.3909	-0.094
Mof_C 	C 	0.5809	0.495	0.4193	0.357
Mof_O 	O 	0.5935	0.4964	0.4524	-0.589
Mof_O 	O 	0.5483	0.4975	0.4063	-0.577
Mof_Re	Re	0.7927	0.4784	0.2925	0.625
Mof_C 	C 	0.7946	0.4299	0.3013	-0.023
Mof_O 	O 	0.796	0.3998	0.298	-0.113
Mof_C 	C 	0.7902	0.4799	0.3418	-0.041
Mof_O 	O 	0.788	0.473	0.3712	-0.118
Mof_C 	C 	0.8408	0.4748	0.3021	-0.022
Mof_O 	O 	0.8702	0.4725	0.308	-0.111
Mof_C 	C 	0.6832	0.485	0.3123	-0.039
Mof_C 	C 	0.7176	0.4835	0.3224	0.071
Mof_C 	C 	0.7435	0.4822	0.2977	-0.187
Mof_C 	C 	0.7351	0.4824	0.2628	-0.015
Mof_C 	C 	0.7007	0.4838	0.2527	-0.215
Mof_C 	C 	0.6747	0.4851	0.2774	0.094
Mof_C 	C 	0.7129	0.5641	0.2183	-2.396
Mof_O 	O 	0.691	0.568	0.1988	-0.548
Mof_Cl	Cl	0.7142	0.5375	0.2129	0.592
Mof_Cl	Cl	0.2105	0.0797	0.2084	2.229
Mof_N 	N 	0.2257	0.0115	0.2723	-0.198
Mof_C 	C 	0.226	0.0904	0.2757	-0.188
Mof_C 	C 	0.2353	0.9787	0.2613	0.073
Mof_C 	C 	0.2004	0.0153	0.2973	0.024
Mof_O 	O 	0.2131	0.1139	0.2897	-0.155
Mof_C 	C 	0.2195	0.9497	0.2753	0.009
Mof_C 	C 	0.1846	0.9863	0.3114	-0.027
Mof_C 	C 	0.1941	0.9535	0.3004	0.011
Mof_C 	C 	0.1575	0.987	0.3393	0.034
Mof_C 	C 	0.1674	0.9882	0.3737	-0.018
Mof_C 	C 	0.1226	0.9867	0.3306	-0.017
Mof_C 	C 	0.1425	0.9889	0.3996	0.072
Mof_C 	C 	0.0977	0.9875	0.3565	0.071
Mof_C 	C 	0.1077	0.9886	0.3909	-0.093
Mof_C 	C 	0.0809	0.995	0.4193	0.359
Mof_O 	O 	0.0935	0.9964	0.4524	-0.579
Mof_O 	O 	0.0483	0.9975	0.4063	-0.572
Mof_Re	Re	0.2927	0.9784	0.2925	0.632
Mof_C 	C 	0.2946	0.9299	0.3013	-0.025
Mof_O 	O 	0.296	0.8998	0.298	-0.112
Mof_C 	C 	0.2902	0.9799	0.3418	-0.036
Mof_O 	O 	0.288	0.973	0.3712	-0.114
Mof_C 	C 	0.3408	0.9748	0.3021	-0.019
Mof_O 	O 	0.3702	0.9725	0.308	-0.109
Mof_C 	C 	0.1832	0.985	0.3123	-0.029
Mof_C 	C 	0.2176	0.9835	0.3224	0.082
Mof_C 	C 	0.2435	0.9822	0.2977	-0.178
Mof_C 	C 	0.2351	0.9824	0.2628	-0.016
Mof_C 	C 	0.2007	0.9838	0.2527	-0.205
Mof_C 	C 	0.1747	0.9851	0.2774	0.104
Mof_C 	C 	0.2129	0.0641	0.2183	-2.421
Mof_O 	O 	0.191	0.068	0.1988	-0.564
Mof_Cl	Cl	0.2142	0.0375	0.2129	0.585
Mof_Cl	Cl	0.2105	0.5797	0.7084	2.198
Mof_N 	N 	0.2257	0.5115	0.7723	-0.186
Mof_C 	C 	0.226	0.5904	0.7757	-0.184
Mof_C 	C 	0.2353	0.4787	0.7613	0.065
Mof_C 	C 	0.2004	0.5153	0.7973	0.06
Mof_O 	O 	0.2131	0.6139	0.7897	-0.151
Mof_C 	C 	0.2195	0.4497	0.7753	0.012
Mof_C 	C 	0.1846	0.4863	0.8114	-0.032
Mof_C 	C 	0.1941	0.4535	0.8004	0.018
Mof_C 	C 	0.1575	0.487	0.8393	0.037
Mof_C 	C 	0.1674	0.4882	0.8737	-0.022
Mof_C 	C 	0.1226	0.4867	0.8306	-0.023
Mof_C 	C 	0.1425	0.4889	0.8996	0.071
Mof_C 	C 	0.0977	0.4875	0.8565	0.067
Mof_C 	C 	0.1077	0.4886	0.8909	-0.094
Mof_C 	C 	0.0809	0.495	0.9193	0.357
Mof_O 	O 	0.0935	0.4964	0.9524	-0.583
Mof_O 	O 	0.0483	0.4975	0.9063	-0.582
Mof_Re	Re	0.2927	0.4784	0.7925	0.625
Mof_C 	C 	0.2946	0.4299	0.8013	-0.023
Mof_O 	O 	0.296	0.3998	0.798	-0.113
Mof_C 	C 	0.2902	0.4799	0.8418	-0.041
Mof_O 	O 	0.288	0.473	0.8712	-0.116
Mof_C 	C 	0.3408	0.4748	0.8021	-0.022
Mof_O 	O 	0.3702	0.4725	0.808	-0.113
Mof_C 	C 	0.1832	0.485	0.8123	-0.039
Mof_C 	C 	0.2176	0.4835	0.8224	0.072
Mof_C 	C 	0.2435	0.4822	0.7977	-0.187
Mof_C 	C 	0.2351	0.4824	0.7628	-0.015
Mof_C 	C 	0.2007	0.4838	0.7527	-0.215
Mof_C 	C 	0.1747	0.4851	0.7774	0.093
Mof_C 	C 	0.2129	0.5641	0.7183	-2.395
Mof_O 	O 	0.191	0.568	0.6988	-0.548
Mof_Cl	Cl	0.2142	0.5375	0.7129	0.592
Mof_Cl	Cl	0.2916	0.7105	0.9203	2.168
Mof_N 	N 	0.2277	0.7257	0.9885	-0.175
Mof_C 	C 	0.2243	0.726	0.9096	-0.182
Mof_C 	C 	0.2387	0.7353	0.0213	0.056
Mof_C 	C 	0.2027	0.7004	0.9847	0.095
Mof_O 	O 	0.2103	0.7131	0.8861	-0.149
Mof_C 	C 	0.2247	0.7195	0.0503	0.015
Mof_C 	C 	0.1886	0.6846	0.0137	-0.038
Mof_C 	C 	0.1996	0.6941	0.0465	0.024
Mof_C 	C 	0.1607	0.6575	0.013	0.039
Mof_C 	C 	0.1263	0.6674	0.0118	-0.031
Mof_C 	C 	0.1694	0.6226	0.0133	-0.027
Mof_C 	C 	0.1004	0.6425	0.0111	0.061
Mof_C 	C 	0.1435	0.5977	0.0125	0.066
Mof_C 	C 	0.1091	0.6077	0.0114	-0.095
Mof_C 	C 	0.0807	0.5809	0.005	0.355
Mof_O 	O 	0.0476	0.5935	0.0036	-0.605
Mof_O 	O 	0.0937	0.5483	0.0025	-0.586
Mof_Re	Re	0.2075	0.7927	0.0216	0.617
Mof_C 	C 	0.1987	0.7946	0.0701	-0.021
Mof_O 	O 	0.202	0.796	0.1002	-0.114
Mof_C 	C 	0.1582	0.7902	0.0201	-0.046
Mof_O 	O 	0.1288	0.788	0.027	-0.126
Mof_C 	C 	0.1979	0.8408	0.0252	-0.026
Mof_O 	O 	0.192	0.8702	0.0275	-0.118
Mof_C 	C 	0.1877	0.6832	0.015	-0.049
Mof_C 	C 	0.1776	0.7176	0.0165	0.06
Mof_C 	C 	0.2023	0.7435	0.0178	-0.196
Mof_C 	C 	0.2372	0.7351	0.0176	-0.014
Mof_C 	C 	0.2473	0.7007	0.0162	-0.224
Mof_C 	C 	0.2226	0.6747	0.0149	0.082
Mof_C 	C 	0.2817	0.7129	0.9359	-2.37
Mof_O 	O 	0.3012	0.691	0.932	-0.531
Mof_Cl	Cl	0.2871	0.7142	0.9625	0.599
Mof_Cl	Cl	0.2916	0.2105	0.4203	2.198
Mof_N 	N 	0.2277	0.2257	0.4885	-0.186
Mof_C 	C 	0.2243	0.226	0.4096	-0.185
Mof_C 	C 	0.2387	0.2353	0.5213	0.065
Mof_C 	C 	0.2027	0.2004	0.4847	0.059
Mof_O 	O 	0.2103	0.2131	0.3861	-0.153
Mof_C 	C 	0.2247	0.2195	0.5503	0.012
Mof_C 	C 	0.1886	0.1846	0.5137	-0.032
Mof_C 	C 	0.1996	0.1941	0.5465	0.018
Mof_C 	C 	0.1607	0.1575	0.513	0.036
Mof_C 	C 	0.1263	0.1674	0.5118	-0.025
Mof_C 	C 	0.1694	0.1226	0.5133	-0.023
Mof_C 	C 	0.1004	0.1425	0.5111	0.065
Mof_C 	C 	0.1435	0.0977	0.5125	0.067
Mof_C 	C 	0.1091	0.1077	0.5114	-0.094
Mof_C 	C 	0.0807	0.0809	0.505	0.357
Mof_O 	O 	0.0476	0.0935	0.5036	-0.596
Mof_O 	O 	0.0937	0.0483	0.5025	-0.583
Mof_Re	Re	0.2075	0.2927	0.5216	0.624
Mof_C 	C 	0.1987	0.2946	0.5701	-0.023
Mof_O 	O 	0.202	0.296	0.6002	-0.114
Mof_C 	C 	0.1582	0.2902	0.5201	-0.042
Mof_O 	O 	0.1288	0.288	0.527	-0.122
Mof_C 	C 	0.1979	0.3408	0.5252	-0.023
Mof_O 	O 	0.192	0.3702	0.5275	-0.116
Mof_C 	C 	0.1877	0.1832	0.515	-0.039
Mof_C 	C 	0.1776	0.2176	0.5165	0.07
Mof_C 	C 	0.2023	0.2435	0.5178	-0.187
Mof_C 	C 	0.2372	0.2351	0.5176	-0.015
Mof_C 	C 	0.2473	0.2007	0.5162	-0.214
Mof_C 	C 	0.2226	0.1747	0.5149	0.093
Mof_C 	C 	0.2817	0.2129	0.4359	-2.395
Mof_O 	O 	0.3012	0.191	0.432	-0.548
Mof_Cl	Cl	0.2871	0.2142	0.4625	0.592
Mof_Cl	Cl	0.7916	0.7105	0.4203	2.194
Mof_N 	N 	0.7277	0.7257	0.4885	-0.186
Mof_C 	C 	0.7243	0.726	0.4096	-0.184
Mof_C 	C 	0.7387	0.7353	0.5213	0.065
Mof_C 	C 	0.7027	0.7004	0.4847	0.06
Mof_O 	O 	0.7103	0.7131	0.3861	-0.15
Mof_C 	C 	0.7247	0.7195	0.5503	0.012
Mof_C 	C 	0.6886	0.6846	0.5137	-0.032
Mof_C 	C 	0.6996	0.6941	0.5465	0.018
Mof_C 	C 	0.6607	0.6575	0.513	0.036
Mof_C 	C 	0.6263	0.6674	0.5118	-0.024
Mof_C 	C 	0.6694	0.6226	0.5133	-0.021
Mof_C 	C 	0.6004	0.6425	0.5111	0.068
Mof_C 	C 	0.6435	0.5977	0.5125	0.07
Mof_C 	C 	0.6091	0.6077	0.5114	-0.094
Mof_C 	C 	0.5807	0.5809	0.505	0.357
Mof_O 	O 	0.5476	0.5935	0.5036	-0.589
Mof_O 	O 	0.5937	0.5483	0.5025	-0.577
Mof_Re	Re	0.7075	0.7927	0.5216	0.625
Mof_C 	C 	0.6987	0.7946	0.5701	-0.023
Mof_O 	O 	0.702	0.796	0.6002	-0.113
Mof_C 	C 	0.6582	0.7902	0.5201	-0.041
Mof_O 	O 	0.6288	0.788	0.527	-0.118
Mof_C 	C 	0.6979	0.8408	0.5252	-0.022
Mof_O 	O 	0.692	0.8702	0.5275	-0.111
Mof_C 	C 	0.6877	0.6832	0.515	-0.039
Mof_C 	C 	0.6776	0.7176	0.5165	0.071
Mof_C 	C 	0.7023	0.7435	0.5178	-0.187
Mof_C 	C 	0.7372	0.7351	0.5176	-0.015
Mof_C 	C 	0.7473	0.7007	0.5162	-0.215
Mof_C 	C 	0.7226	0.6747	0.5149	0.094
Mof_C 	C 	0.7817	0.7129	0.4359	-2.39
Mof_O 	O 	0.8012	0.691	0.432	-0.543
Mof_Cl	Cl	0.7871	0.7142	0.4625	0.59
Mof_Cl	Cl	0.7916	0.2105	0.9203	2.167
Mof_N 	N 	0.7277	0.2257	0.9885	-0.175
Mof_C 	C 	0.7243	0.226	0.9096	-0.182
Mof_C 	C 	0.7387	0.2353	0.0213	0.056
Mof_C 	C 	0.7027	0.2004	0.9847	0.094
Mof_O 	O 	0.7103	0.2131	0.8861	-0.149
Mof_C 	C 	0.7247	0.2195	0.0503	0.015
Mof_C 	C 	0.6886	0.1846	0.0137	-0.038
Mof_C 	C 	0.6996	0.1941	0.0465	0.024
Mof_C 	C 	0.6607	0.1575	0.013	0.039
Mof_C 	C 	0.6263	0.1674	0.0118	-0.03
Mof_C 	C 	0.6694	0.1226	0.0133	-0.029
Mof_C 	C 	0.6004	0.1425	0.0111	0.063
Mof_C 	C 	0.6435	0.0977	0.0125	0.063
Mof_C 	C 	0.6091	0.1077	0.0114	-0.095
Mof_C 	C 	0.5807	0.0809	0.005	0.355
Mof_O 	O 	0.5476	0.0935	0.0036	-0.599
Mof_O 	O 	0.5937	0.0483	0.0025	-0.592
Mof_Re	Re	0.7075	0.2927	0.0216	0.617
Mof_C 	C 	0.6987	0.2946	0.0701	-0.021
Mof_O 	O 	0.702	0.296	0.1002	-0.114
Mof_C 	C 	0.6582	0.2902	0.0201	-0.046
Mof_O 	O 	0.6288	0.288	0.027	-0.124
Mof_C 	C 	0.6979	0.3408	0.0252	-0.026
Mof_O 	O 	0.692	0.3702	0.0275	-0.12
Mof_C 	C 	0.6877	0.1832	0.015	-0.049
Mof_C 	C 	0.6776	0.2176	0.0165	0.061
Mof_C 	C 	0.7023	0.2435	0.0178	-0.196
Mof_C 	C 	0.7372	0.2351	0.0176	-0.014
Mof_C 	C 	0.7473	0.2007	0.0162	-0.224
Mof_C 	C 	0.7226	0.1747	0.0149	0.081
Mof_C 	C 	0.7817	0.2129	0.9359	-2.369
Mof_O 	O 	0.8012	0.191	0.932	-0.531
Mof_Cl	Cl	0.7871	0.2142	0.9625	0.598
Mof_Cl	Cl	0.2916	0.2895	0.0797	2.225
Mof_N 	N 	0.2277	0.2743	0.0115	-0.198
Mof_C 	C 	0.2243	0.274	0.0904	-0.189
Mof_C 	C 	0.2387	0.2647	0.9787	0.073
Mof_C 	C 	0.2027	0.2996	0.0153	0.024
Mof_O 	O 	0.2103	0.2869	0.1139	-0.155
Mof_C 	C 	0.2247	0.2805	0.9497	0.009
Mof_C 	C 	0.1886	0.3154	0.9863	-0.027
Mof_C 	C 	0.1996	0.3059	0.9535	0.011
Mof_C 	C 	0.1607	0.3425	0.987	0.034
Mof_C 	C 	0.1263	0.3326	0.9882	-0.019
Mof_C 	C 	0.1694	0.3774	0.9867	-0.015
Mof_C 	C 	0.1004	0.3575	0.9889	0.069
Mof_C 	C 	0.1435	0.4023	0.9875	0.074
Mof_C 	C 	0.1091	0.3923	0.9886	-0.093
Mof_C 	C 	0.0807	0.4191	0.995	0.359
Mof_O 	O 	0.0476	0.4065	0.9964	-0.585
Mof_O 	O 	0.0937	0.4517	0.9975	-0.566
Mof_Re	Re	0.2075	0.2073	0.9784	0.631
Mof_C 	C 	0.1987	0.2054	0.9299	-0.026
Mof_O 	O 	0.202	0.204	0.8998	-0.113
Mof_C 	C 	0.1582	0.2098	0.9799	-0.037
Mof_O 	O 	0.1288	0.212	0.973	-0.119
Mof_C 	C 	0.1979	0.1592	0.9748	-0.019
Mof_O 	O 	0.192	0.1298	0.9725	-0.114
Mof_C 	C 	0.1877	0.3168	0.985	-0.029
Mof_C 	C 	0.1776	0.2824	0.9835	0.081
Mof_C 	C 	0.2023	0.2565	0.9822	-0.178
Mof_C 	C 	0.2372	0.2649	0.9824	-0.016
Mof_C 	C 	0.2473	0.2993	0.9838	-0.206
Mof_C 	C 	0.2226	0.3253	0.9851	0.105
Mof_C 	C 	0.2817	0.2871	0.0641	-2.416
Mof_O 	O 	0.3012	0.309	0.068	-0.559
Mof_Cl	Cl	0.2871	0.2858	0.0375	0.584
Mof_Cl	Cl	0.2916	0.7895	0.5797	2.195
Mof_N 	N 	0.2277	0.7743	0.5115	-0.186
Mof_C 	C 	0.2243	0.774	0.5904	-0.185
Mof_C 	C 	0.2387	0.7647	0.4787	0.065
Mof_C 	C 	0.2027	0.7996	0.5153	0.06
Mof_O 	O 	0.2103	0.7869	0.6139	-0.151
Mof_C 	C 	0.2247	0.7805	0.4497	0.012
Mof_C 	C 	0.1886	0.8154	0.4863	-0.032
Mof_C 	C 	0.1996	0.8059	0.4535	0.018
Mof_C 	C 	0.1607	0.8425	0.487	0.037
Mof_C 	C 	0.1263	0.8326	0.4882	-0.025
Mof_C 	C 	0.1694	0.8774	0.4867	-0.02
Mof_C 	C 	0.1004	0.8575	0.4889	0.065
Mof_C 	C 	0.1435	0.9023	0.4875	0.073
Mof_C 	C 	0.1091	0.8923	0.4886	-0.094
Mof_C 	C 	0.0807	0.9191	0.495	0.357
Mof_O 	O 	0.0476	0.9065	0.4964	-0.595
Mof_O 	O 	0.0937	0.9517	0.4975	-0.57
Mof_Re	Re	0.2075	0.7073	0.4784	0.624
Mof_C 	C 	0.1987	0.7054	0.4299	-0.023
Mof_O 	O 	0.202	0.704	0.3998	-0.114
Mof_C 	C 	0.1582	0.7098	0.4799	-0.042
Mof_O 	O 	0.1288	0.712	0.473	-0.122
Mof_C 	C 	0.1979	0.6592	0.4748	-0.023
Mof_O 	O 	0.192	0.6298	0.4725	-0.116
Mof_C 	C 	0.1877	0.8168	0.485	-0.039
Mof_C 	C 	0.1776	0.7824	0.4835	0.07
Mof_C 	C 	0.2023	0.7565	0.4822	-0.187
Mof_C 	C 	0.2372	0.7649	0.4824	-0.015
Mof_C 	C 	0.2473	0.7993	0.4838	-0.215
Mof_C 	C 	0.2226	0.8253	0.4851	0.095
Mof_C 	C 	0.2817	0.7871	0.5641	-2.392
Mof_O 	O 	0.3012	0.809	0.568	-0.543
Mof_Cl	Cl	0.2871	0.7858	0.5375	0.591
Mof_Cl	Cl	0.7916	0.2895	0.5797	2.194
Mof_N 	N 	0.7277	0.2743	0.5115	-0.186
Mof_C 	C 	0.7243	0.274	0.5904	-0.185
Mof_C 	C 	0.7387	0.2647	0.4787	0.065
Mof_C 	C 	0.7027	0.2996	0.5153	0.06
Mof_O 	O 	0.7103	0.2869	0.6139	-0.151
Mof_C 	C 	0.7247	0.2805	0.4497	0.012
Mof_C 	C 	0.6886	0.3154	0.4863	-0.032
Mof_C 	C 	0.6996	0.3059	0.4535	0.018
Mof_C 	C 	0.6607	0.3425	0.487	0.037
Mof_C 	C 	0.6263	0.3326	0.4882	-0.024
Mof_C 	C 	0.6694	0.3774	0.4867	-0.021
Mof_C 	C 	0.6004	0.3575	0.4889	0.068
Mof_C 	C 	0.6435	0.4023	0.4875	0.07
Mof_C 	C 	0.6091	0.3923	0.4886	-0.094
Mof_C 	C 	0.5807	0.4191	0.495	0.357
Mof_O 	O 	0.5476	0.4065	0.4964	-0.589
Mof_O 	O 	0.5937	0.4517	0.4975	-0.576
Mof_Re	Re	0.7075	0.2073	0.4784	0.624
Mof_C 	C 	0.6987	0.2054	0.4299	-0.023
Mof_O 	O 	0.702	0.204	0.3998	-0.114
Mof_C 	C 	0.6582	0.2098	0.4799	-0.042
Mof_O 	O 	0.6288	0.212	0.473	-0.12
Mof_C 	C 	0.6979	0.1592	0.4748	-0.023
Mof_O 	O 	0.692	0.1298	0.4725	-0.118
Mof_C 	C 	0.6877	0.3168	0.485	-0.039
Mof_C 	C 	0.6776	0.2824	0.4835	0.071
Mof_C 	C 	0.7023	0.2565	0.4822	-0.187
Mof_C 	C 	0.7372	0.2649	0.4824	-0.015
Mof_C 	C 	0.7473	0.2993	0.4838	-0.215
Mof_C 	C 	0.7226	0.3253	0.4851	0.094
Mof_C 	C 	0.7817	0.2871	0.5641	-2.39
Mof_O 	O 	0.8012	0.309	0.568	-0.543
Mof_Cl	Cl	0.7871	0.2858	0.5375	0.59
Mof_Cl	Cl	0.7916	0.7895	0.0797	2.221
Mof_N 	N 	0.7277	0.7743	0.0115	-0.198
Mof_C 	C 	0.7243	0.774	0.0904	-0.187
Mof_C 	C 	0.7387	0.7647	0.9787	0.073
Mof_C 	C 	0.7027	0.7996	0.0153	0.026
Mof_O 	O 	0.7103	0.7869	0.1139	-0.152
Mof_C 	C 	0.7247	0.7805	0.9497	0.008
Mof_C 	C 	0.6886	0.8154	0.9863	-0.027
Mof_C 	C 	0.6996	0.8059	0.9535	0.011
Mof_C 	C 	0.6607	0.8425	0.987	0.034
Mof_C 	C 	0.6263	0.8326	0.9882	-0.017
Mof_C 	C 	0.6694	0.8774	0.9867	-0.013
Mof_C 	C 	0.6004	0.8575	0.9889	0.073
Mof_C 	C 	0.6435	0.9023	0.9875	0.078
Mof_C 	C 	0.6091	0.8923	0.9886	-0.093
Mof_C 	C 	0.5807	0.9191	0.995	0.359
Mof_O 	O 	0.5476	0.9065	0.9964	-0.579
Mof_O 	O 	0.5937	0.9517	0.9975	-0.559
Mof_Re	Re	0.7075	0.7073	0.9784	0.632
Mof_C 	C 	0.6987	0.7054	0.9299	-0.025
Mof_O 	O 	0.702	0.704	0.8998	-0.113
Mof_C 	C 	0.6582	0.7098	0.9799	-0.036
Mof_O 	O 	0.6288	0.712	0.973	-0.115
Mof_C 	C 	0.6979	0.6592	0.9748	-0.019
Mof_O 	O 	0.692	0.6298	0.9725	-0.109
Mof_C 	C 	0.6877	0.8168	0.985	-0.029
Mof_C 	C 	0.6776	0.7824	0.9835	0.082
Mof_C 	C 	0.7023	0.7565	0.9822	-0.179
Mof_C 	C 	0.7372	0.7649	0.9824	-0.016
Mof_C 	C 	0.7473	0.7993	0.9838	-0.206
Mof_C 	C 	0.7226	0.8253	0.9851	0.107
Mof_C 	C 	0.7817	0.7871	0.0641	-2.411
Mof_O 	O 	0.8012	0.809	0.068	-0.555
Mof_Cl	Cl	0.7871	0.7858	0.0375	0.582
Mof_Cl	Cl	0.7084	0.2895	0.9203	2.169
Mof_N 	N 	0.7723	0.2743	0.9885	-0.175
Mof_C 	C 	0.7757	0.274	0.9096	-0.181
Mof_C 	C 	0.7613	0.2647	0.0213	0.056
Mof_C 	C 	0.7973	0.2996	0.9847	0.096
Mof_O 	O 	0.7897	0.2869	0.8861	-0.147
Mof_C 	C 	0.7753	0.2805	0.0503	0.015
Mof_C 	C 	0.8114	0.3154	0.0137	-0.038
Mof_C 	C 	0.8004	0.3059	0.0465	0.024
Mof_C 	C 	0.8393	0.3425	0.013	0.039
Mof_C 	C 	0.8737	0.3326	0.0118	-0.028
Mof_C 	C 	0.8306	0.3774	0.0133	-0.027
Mof_C 	C 	0.8996	0.3575	0.0111	0.067
Mof_C 	C 	0.8565	0.4023	0.0125	0.066
Mof_C 	C 	0.8909	0.3923	0.0114	-0.095
Mof_C 	C 	0.9193	0.4191	0.005	0.355
Mof_O 	O 	0.9524	0.4065	0.0036	-0.591
Mof_O 	O 	0.9063	0.4517	0.0025	-0.586
Mof_Re	Re	0.7925	0.2073	0.0216	0.617
Mof_C 	C 	0.8013	0.2054	0.0701	-0.021
Mof_O 	O 	0.798	0.204	0.1002	-0.114
Mof_C 	C 	0.8418	0.2098	0.0201	-0.046
Mof_O 	O 	0.8712	0.212	0.027	-0.122
Mof_C 	C 	0.8021	0.1592	0.0252	-0.026
Mof_O 	O 	0.808	0.1298	0.0275	-0.122
Mof_C 	C 	0.8123	0.3168	0.015	-0.049
Mof_C 	C 	0.8224	0.2824	0.0165	0.062
Mof_C 	C 	0.7977	0.2565	0.0178	-0.196
Mof_C 	C 	0.7628	0.2649	0.0176	-0.014
Mof_C 	C 	0.7527	0.2993	0.0162	-0.224
Mof_C 	C 	0.7774	0.3253	0.0149	0.082
Mof_C 	C 	0.7183	0.2871	0.9359	-2.371
Mof_O 	O 	0.6988	0.309	0.932	-0.531
Mof_Cl	Cl	0.7129	0.2858	0.9625	0.599
Mof_Cl	Cl	0.7084	0.7895	0.4203	2.196
Mof_N 	N 	0.7723	0.7743	0.4885	-0.186
Mof_C 	C 	0.7757	0.774	0.4096	-0.184
Mof_C 	C 	0.7613	0.7647	0.5213	0.065
Mof_C 	C 	0.7973	0.7996	0.4847	0.061
Mof_O 	O 	0.7897	0.7869	0.3861	-0.148
Mof_C 	C 	0.7753	0.7805	0.5503	0.012
Mof_C 	C 	0.8114	0.8154	0.5137	-0.033
Mof_C 	C 	0.8004	0.8059	0.5465	0.018
Mof_C 	C 	0.8393	0.8425	0.513	0.037
Mof_C 	C 	0.8737	0.8326	0.5118	-0.022
Mof_C 	C 	0.8306	0.8774	0.5133	-0.019
Mof_C 	C 	0.8996	0.8575	0.5111	0.072
Mof_C 	C 	0.8565	0.9023	0.5125	0.074
Mof_C 	C 	0.8909	0.8923	0.5114	-0.094
Mof_C 	C 	0.9193	0.9191	0.505	0.357
Mof_O 	O 	0.9524	0.9065	0.5036	-0.582
Mof_O 	O 	0.9063	0.9517	0.5025	-0.569
Mof_Re	Re	0.7925	0.7073	0.5216	0.625
Mof_C 	C 	0.8013	0.7054	0.5701	-0.023
Mof_O 	O 	0.798	0.704	0.6002	-0.113
Mof_C 	C 	0.8418	0.7098	0.5201	-0.041
Mof_O 	O 	0.8712	0.712	0.527	-0.116
Mof_C 	C 	0.8021	0.6592	0.5252	-0.022
Mof_O 	O 	0.808	0.6298	0.5275	-0.113
Mof_C 	C 	0.8123	0.8168	0.515	-0.039
Mof_C 	C 	0.8224	0.7824	0.5165	0.072
Mof_C 	C 	0.7977	0.7565	0.5178	-0.187
Mof_C 	C 	0.7628	0.7649	0.5176	-0.015
Mof_C 	C 	0.7527	0.7993	0.5162	-0.215
Mof_C 	C 	0.7774	0.8253	0.5149	0.095
Mof_C 	C 	0.7183	0.7871	0.4359	-2.392
Mof_O 	O 	0.6988	0.809	0.432	-0.543
Mof_Cl	Cl	0.7129	0.7858	0.4625	0.591
Mof_Cl	Cl	0.2084	0.2895	0.4203	2.2
Mof_N 	N 	0.2723	0.2743	0.4885	-0.186
Mof_C 	C 	0.2757	0.274	0.4096	-0.185
Mof_C 	C 	0.2613	0.2647	0.5213	0.065
Mof_C 	C 	0.2973	0.2996	0.4847	0.06
Mof_O 	O 	0.2897	0.2869	0.3861	-0.151
Mof_C 	C 	0.2753	0.2805	0.5503	0.012
Mof_C 	C 	0.3114	0.3154	0.5137	-0.032
Mof_C 	C 	0.3004	0.3059	0.5465	0.018
Mof_C 	C 	0.3393	0.3425	0.513	0.037
Mof_C 	C 	0.3737	0.3326	0.5118	-0.024
Mof_C 	C 	0.3306	0.3774	0.5133	-0.021
Mof_C 	C 	0.3996	0.3575	0.5111	0.068
Mof_C 	C 	0.3565	0.4023	0.5125	0.07
Mof_C 	C 	0.3909	0.3923	0.5114	-0.094
Mof_C 	C 	0.4193	0.4191	0.505	0.357
Mof_O 	O 	0.4524	0.4065	0.5036	-0.589
Mof_O 	O 	0.4063	0.4517	0.5025	-0.577
Mof_Re	Re	0.2925	0.2073	0.5216	0.624
Mof_C 	C 	0.3013	0.2054	0.5701	-0.023
Mof_O 	O 	0.298	0.204	0.6002	-0.114
Mof_C 	C 	0.3418	0.2098	0.5201	-0.042
Mof_O 	O 	0.3712	0.212	0.527	-0.12
Mof_C 	C 	0.3021	0.1592	0.5252	-0.023
Mof_O 	O 	0.308	0.1298	0.5275	-0.118
Mof_C 	C 	0.3123	0.3168	0.515	-0.039
Mof_C 	C 	0.3224	0.2824	0.5165	0.071
Mof_C 	C 	0.2977	0.2565	0.5178	-0.187
Mof_C 	C 	0.2628	0.2649	0.5176	-0.015
Mof_C 	C 	0.2527	0.2993	0.5162	-0.215
Mof_C 	C 	0.2774	0.3253	0.5149	0.094
Mof_C 	C 	0.2183	0.2871	0.4359	-2.397
Mof_O 	O 	0.1988	0.309	0.432	-0.548
Mof_Cl	Cl	0.2129	0.2858	0.4625	0.593
Mof_Cl	Cl	0.2084	0.7895	0.9203	2.17
Mof_N 	N 	0.2723	0.7743	0.9885	-0.175
Mof_C 	C 	0.2757	0.774	0.9096	-0.181
Mof_C 	C 	0.2613	0.7647	0.0213	0.056
Mof_C 	C 	0.2973	0.7996	0.9847	0.096
Mof_O 	O 	0.2897	0.7869	0.8861	-0.147
Mof_C 	C 	0.2753	0.7805	0.0503	0.015
Mof_C 	C 	0.3114	0.8154	0.0137	-0.038
Mof_C 	C 	0.3004	0.8059	0.0465	0.024
Mof_C 	C 	0.3393	0.8425	0.013	0.039
Mof_C 	C 	0.3737	0.8326	0.0118	-0.03
Mof_C 	C 	0.3306	0.8774	0.0133	-0.026
Mof_C 	C 	0.3996	0.8575	0.0111	0.064
Mof_C 	C 	0.3565	0.9023	0.0125	0.069
Mof_C 	C 	0.3909	0.8923	0.0114	-0.095
Mof_C 	C 	0.4193	0.9191	0.005	0.355
Mof_O 	O 	0.4524	0.9065	0.0036	-0.598
Mof_O 	O 	0.4063	0.9517	0.0025	-0.579
Mof_Re	Re	0.2925	0.7073	0.0216	0.617
Mof_C 	C 	0.3013	0.7054	0.0701	-0.021
Mof_O 	O 	0.298	0.704	0.1002	-0.114
Mof_C 	C 	0.3418	0.7098	0.0201	-0.046
Mof_O 	O 	0.3712	0.712	0.027	-0.124
Mof_C 	C 	0.3021	0.6592	0.0252	-0.026
Mof_O 	O 	0.308	0.6298	0.0275	-0.12
Mof_C 	C 	0.3123	0.8168	0.015	-0.049
Mof_C 	C 	0.3224	0.7824	0.0165	0.061
Mof_C 	C 	0.2977	0.7565	0.0178	-0.196
Mof_C 	C 	0.2628	0.7649	0.0176	-0.014
Mof_C 	C 	0.2527	0.7993	0.0162	-0.224
Mof_C 	C 	0.2774	0.8253	0.0149	0.083
Mof_C 	C 	0.2183	0.7871	0.9359	-2.372
Mof_O 	O 	0.1988	0.809	0.932	-0.531
Mof_Cl	Cl	0.2129	0.7858	0.9625	0.6
Mof_Cl	Cl	0.7084	0.7105	0.0797	2.225
Mof_N 	N 	0.7723	0.7257	0.0115	-0.198
Mof_C 	C 	0.7757	0.726	0.0904	-0.187
Mof_C 	C 	0.7613	0.7353	0.9787	0.073
Mof_C 	C 	0.7973	0.7004	0.0153	0.026
Mof_O 	O 	0.7897	0.7131	0.1139	-0.152
Mof_C 	C 	0.7753	0.7195	0.9497	0.008
Mof_C 	C 	0.8114	0.6846	0.9863	-0.027
Mof_C 	C 	0.8004	0.6941	0.9535	0.011
Mof_C 	C 	0.8393	0.6575	0.987	0.034
Mof_C 	C 	0.8737	0.6674	0.9882	-0.016
Mof_C 	C 	0.8306	0.6226	0.9867	-0.015
Mof_C 	C 	0.8996	0.6425	0.9889	0.076
Mof_C 	C 	0.8565	0.5977	0.9875	0.075
Mof_C 	C 	0.8909	0.6077	0.9886	-0.093
Mof_C 	C 	0.9193	0.5809	0.995	0.359
Mof_O 	O 	0.9524	0.5935	0.9964	-0.572
Mof_O 	O 	0.9063	0.5483	0.9975	-0.566
Mof_Re	Re	0.7925	0.7927	0.9784	0.633
Mof_C 	C 	0.8013	0.7946	0.9299	-0.025
Mof_O 	O 	0.798	0.796	0.8998	-0.112
Mof_C 	C 	0.8418	0.7902	0.9799	-0.035
Mof_O 	O 	0.8712	0.788	0.973	-0.11
Mof_C 	C 	0.8021	0.8408	0.9748	-0.018
Mof_O 	O 	0.808	0.8702	0.9725	-0.104
Mof_C 	C 	0.8123	0.6832	0.985	-0.029
Mof_C 	C 	0.8224	0.7176	0.9835	0.083
Mof_C 	C 	0.7977	0.7435	0.9822	-0.179
Mof_C 	C 	0.7628	0.7351	0.9824	-0.016
Mof_C 	C 	0.7527	0.7007	0.9838	-0.206
Mof_C 	C 	0.7774	0.6747	0.9851	0.105
Mof_C 	C 	0.7183	0.7129	0.0641	-2.416
Mof_O 	O 	0.6988	0.691	0.068	-0.559
Mof_Cl	Cl	0.7129	0.7142	0.0375	0.583
Mof_Cl	Cl	0.7084	0.2105	0.5797	2.198
Mof_N 	N 	0.7723	0.2257	0.5115	-0.186
Mof_C 	C 	0.7757	0.226	0.5904	-0.184
Mof_C 	C 	0.7613	0.2353	0.4787	0.065
Mof_C 	C 	0.7973	0.2004	0.5153	0.06
Mof_O 	O 	0.7897	0.2131	0.6139	-0.151
Mof_C 	C 	0.7753	0.2195	0.4497	0.012
Mof_C 	C 	0.8114	0.1846	0.4863	-0.032
Mof_C 	C 	0.8004	0.1941	0.4535	0.018
Mof_C 	C 	0.8393	0.1575	0.487	0.037
Mof_C 	C 	0.8737	0.1674	0.4882	-0.022
Mof_C 	C 	0.8306	0.1226	0.4867	-0.023
Mof_C 	C 	0.8996	0.1425	0.4889	0.071
Mof_C 	C 	0.8565	0.0977	0.4875	0.067
Mof_C 	C 	0.8909	0.1077	0.4886	-0.094
Mof_C 	C 	0.9193	0.0809	0.495	0.357
Mof_O 	O 	0.9524	0.0935	0.4964	-0.583
Mof_O 	O 	0.9063	0.0483	0.4975	-0.582
Mof_Re	Re	0.7925	0.2927	0.4784	0.625
Mof_C 	C 	0.8013	0.2946	0.4299	-0.023
Mof_O 	O 	0.798	0.296	0.3998	-0.113
Mof_C 	C 	0.8418	0.2902	0.4799	-0.041
Mof_O 	O 	0.8712	0.288	0.473	-0.116
Mof_C 	C 	0.8021	0.3408	0.4748	-0.022
Mof_O 	O 	0.808	0.3702	0.4725	-0.113
Mof_C 	C 	0.8123	0.1832	0.485	-0.039
Mof_C 	C 	0.8224	0.2176	0.4835	0.072
Mof_C 	C 	0.7977	0.2435	0.4822	-0.187
Mof_C 	C 	0.7628	0.2351	0.4824	-0.015
Mof_C 	C 	0.7527	0.2007	0.4838	-0.215
Mof_C 	C 	0.7774	0.1747	0.4851	0.093
Mof_C 	C 	0.7183	0.2129	0.5641	-2.395
Mof_O 	O 	0.6988	0.191	0.568	-0.548
Mof_Cl	Cl	0.7129	0.2142	0.5375	0.592
Mof_Cl	Cl	0.2084	0.7105	0.5797	2.2
Mof_N 	N 	0.2723	0.7257	0.5115	-0.186
Mof_C 	C 	0.2757	0.726	0.5904	-0.185
Mof_C 	C 	0.2613	0.7353	0.4787	0.065
Mof_C 	C 	0.2973	0.7004	0.5153	0.06
Mof_O 	O 	0.2897	0.7131	0.6139	-0.151
Mof_C 	C 	0.2753	0.7195	0.4497	0.012
Mof_C 	C 	0.3114	0.6846	0.4863	-0.032
Mof_C 	C 	0.3004	0.6941	0.4535	0.018
Mof_C 	C 	0.3393	0.6575	0.487	0.037
Mof_C 	C 	0.3737	0.6674	0.4882	-0.024
Mof_C 	C 	0.3306	0.6226	0.4867	-0.021
Mof_C 	C 	0.3996	0.6425	0.4889	0.068
Mof_C 	C 	0.3565	0.5977	0.4875	0.07
Mof_C 	C 	0.3909	0.6077	0.4886	-0.094
Mof_C 	C 	0.4193	0.5809	0.495	0.357
Mof_O 	O 	0.4524	0.5935	0.4964	-0.589
Mof_O 	O 	0.4063	0.5483	0.4975	-0.577
Mof_Re	Re	0.2925	0.7927	0.4784	0.625
Mof_C 	C 	0.3013	0.7946	0.4299	-0.023
Mof_O 	O 	0.298	0.796	0.3998	-0.113
Mof_C 	C 	0.3418	0.7902	0.4799	-0.041
Mof_O 	O 	0.3712	0.788	0.473	-0.118
Mof_C 	C 	0.3021	0.8408	0.4748	-0.022
Mof_O 	O 	0.308	0.8702	0.4725	-0.111
Mof_C 	C 	0.3123	0.6832	0.485	-0.039
Mof_C 	C 	0.3224	0.7176	0.4835	0.071
Mof_C 	C 	0.2977	0.7435	0.4822	-0.187
Mof_C 	C 	0.2628	0.7351	0.4824	-0.015
Mof_C 	C 	0.2527	0.7007	0.4838	-0.215
Mof_C 	C 	0.2774	0.6747	0.4851	0.094
Mof_C 	C 	0.2183	0.7129	0.5641	-2.396
Mof_O 	O 	0.1988	0.691	0.568	-0.548
Mof_Cl	Cl	0.2129	0.7142	0.5375	0.592
Mof_Cl	Cl	0.2084	0.2105	0.0797	2.229
Mof_N 	N 	0.2723	0.2257	0.0115	-0.198
Mof_C 	C 	0.2757	0.226	0.0904	-0.188
Mof_C 	C 	0.2613	0.2353	0.9787	0.073
Mof_C 	C 	0.2973	0.2004	0.0153	0.024
Mof_O 	O 	0.2897	0.2131	0.1139	-0.155
Mof_C 	C 	0.2753	0.2195	0.9497	0.009
Mof_C 	C 	0.3114	0.1846	0.9863	-0.027
Mof_C 	C 	0.3004	0.1941	0.9535	0.011
Mof_C 	C 	0.3393	0.1575	0.987	0.034
Mof_C 	C 	0.3737	0.1674	0.9882	-0.018
Mof_C 	C 	0.3306	0.1226	0.9867	-0.017
Mof_C 	C 	0.3996	0.1425	0.9889	0.072
Mof_C 	C 	0.3565	0.0977	0.9875	0.071
Mof_C 	C 	0.3909	0.1077	0.9886	-0.093
Mof_C 	C 	0.4193	0.0809	0.995	0.359
Mof_O 	O 	0.4524	0.0935	0.9964	-0.579
Mof_O 	O 	0.4063	0.0483	0.9975	-0.572
Mof_Re	Re	0.2925	0.2927	0.9784	0.632
Mof_C 	C 	0.3013	0.2946	0.9299	-0.025
Mof_O 	O 	0.298	0.296	0.8998	-0.112
Mof_C 	C 	0.3418	0.2902	0.9799	-0.036
Mof_O 	O 	0.3712	0.288	0.973	-0.114
Mof_C 	C 	0.3021	0.3408	0.9748	-0.019
Mof_O 	O 	0.308	0.3702	0.9725	-0.109
Mof_C 	C 	0.3123	0.1832	0.985	-0.029
Mof_C 	C 	0.3224	0.2176	0.9835	0.082
Mof_C 	C 	0.2977	0.2435	0.9822	-0.178
Mof_C 	C 	0.2628	0.2351	0.9824	-0.016
Mof_C 	C 	0.2527	0.2007	0.9838	-0.205
Mof_C 	C 	0.2774	0.1747	0.9851	0.104
Mof_C 	C 	0.2183	0.2129	0.0641	-2.421
Mof_O 	O 	0.1988	0.191	0.068	-0.564
Mof_Cl	Cl	0.2129	0.2142	0.0375	0.585
Mof_Cl	Cl	0.9203	0.2916	0.7105	2.168
Mof_N 	N 	0.9885	0.2277	0.7257	-0.175
Mof_C 	C 	0.9096	0.2243	0.726	-0.182
Mof_C 	C 	0.0213	0.2387	0.7353	0.056
Mof_C 	C 	0.9847	0.2027	0.7004	0.095
Mof_O 	O 	0.8861	0.2103	0.7131	-0.149
Mof_C 	C 	0.0503	0.2247	0.7195	0.015
Mof_C 	C 	0.0137	0.1886	0.6846	-0.038
Mof_C 	C 	0.0465	0.1996	0.6941	0.024
Mof_C 	C 	0.013	0.1607	0.6575	0.039
Mof_C 	C 	0.0118	0.1263	0.6674	-0.031
Mof_C 	C 	0.0133	0.1694	0.6226	-0.027
Mof_C 	C 	0.0111	0.1004	0.6425	0.061
Mof_C 	C 	0.0125	0.1435	0.5977	0.066
Mof_C 	C 	0.0114	0.1091	0.6077	-0.095
Mof_C 	C 	0.005	0.0807	0.5809	0.355
Mof_O 	O 	0.0036	0.0476	0.5935	-0.605
Mof_O 	O 	0.0025	0.0937	0.5483	-0.586
Mof_Re	Re	0.0216	0.2075	0.7927	0.617
Mof_C 	C 	0.0701	0.1987	0.7946	-0.021
Mof_O 	O 	0.1002	0.202	0.796	-0.114
Mof_C 	C 	0.0201	0.1582	0.7902	-0.046
Mof_O 	O 	0.027	0.1288	0.788	-0.126
Mof_C 	C 	0.0252	0.1979	0.8408	-0.026
Mof_O 	O 	0.0275	0.192	0.8702	-0.118
Mof_C 	C 	0.015	0.1877	0.6832	-0.049
Mof_C 	C 	0.0165	0.1776	0.7176	0.06
Mof_C 	C 	0.0178	0.2023	0.7435	-0.196
Mof_C 	C 	0.0176	0.2372	0.7351	-0.014
Mof_C 	C 	0.0162	0.2473	0.7007	-0.224
Mof_C 	C 	0.0149	0.2226	0.6747	0.082
Mof_C 	C 	0.9359	0.2817	0.7129	-2.37
Mof_O 	O 	0.932	0.3012	0.691	-0.531
Mof_Cl	Cl	0.9625	0.2871	0.7142	0.599
Mof_Cl	Cl	0.9203	0.7916	0.2105	2.167
Mof_N 	N 	0.9885	0.7277	0.2257	-0.175
Mof_C 	C 	0.9096	0.7243	0.226	-0.182
Mof_C 	C 	0.0213	0.7387	0.2353	0.056
Mof_C 	C 	0.9847	0.7027	0.2004	0.094
Mof_O 	O 	0.8861	0.7103	0.2131	-0.149
Mof_C 	C 	0.0503	0.7247	0.2195	0.015
Mof_C 	C 	0.0137	0.6886	0.1846	-0.038
Mof_C 	C 	0.0465	0.6996	0.1941	0.024
Mof_C 	C 	0.013	0.6607	0.1575	0.039
Mof_C 	C 	0.0118	0.6263	0.1674	-0.03
Mof_C 	C 	0.0133	0.6694	0.1226	-0.029
Mof_C 	C 	0.0111	0.6004	0.1425	0.063
Mof_C 	C 	0.0125	0.6435	0.0977	0.063
Mof_C 	C 	0.0114	0.6091	0.1077	-0.095
Mof_C 	C 	0.005	0.5807	0.0809	0.355
Mof_O 	O 	0.0036	0.5476	0.0935	-0.599
Mof_O 	O 	0.0025	0.5937	0.0483	-0.592
Mof_Re	Re	0.0216	0.7075	0.2927	0.617
Mof_C 	C 	0.0701	0.6987	0.2946	-0.021
Mof_O 	O 	0.1002	0.702	0.296	-0.114
Mof_C 	C 	0.0201	0.6582	0.2902	-0.046
Mof_O 	O 	0.027	0.6288	0.288	-0.124
Mof_C 	C 	0.0252	0.6979	0.3408	-0.026
Mof_O 	O 	0.0275	0.692	0.3702	-0.12
Mof_C 	C 	0.015	0.6877	0.1832	-0.049
Mof_C 	C 	0.0165	0.6776	0.2176	0.061
Mof_C 	C 	0.0178	0.7023	0.2435	-0.196
Mof_C 	C 	0.0176	0.7372	0.2351	-0.014
Mof_C 	C 	0.0162	0.7473	0.2007	-0.224
Mof_C 	C 	0.0149	0.7226	0.1747	0.081
Mof_C 	C 	0.9359	0.7817	0.2129	-2.369
Mof_O 	O 	0.932	0.8012	0.191	-0.531
Mof_Cl	Cl	0.9625	0.7871	0.2142	0.598
Mof_Cl	Cl	0.4203	0.2916	0.2105	2.198
Mof_N 	N 	0.4885	0.2277	0.2257	-0.186
Mof_C 	C 	0.4096	0.2243	0.226	-0.185
Mof_C 	C 	0.5213	0.2387	0.2353	0.065
Mof_C 	C 	0.4847	0.2027	0.2004	0.059
Mof_O 	O 	0.3861	0.2103	0.2131	-0.153
Mof_C 	C 	0.5503	0.2247	0.2195	0.012
Mof_C 	C 	0.5137	0.1886	0.1846	-0.032
Mof_C 	C 	0.5465	0.1996	0.1941	0.018
Mof_C 	C 	0.513	0.1607	0.1575	0.036
Mof_C 	C 	0.5118	0.1263	0.1674	-0.025
Mof_C 	C 	0.5133	0.1694	0.1226	-0.023
Mof_C 	C 	0.5111	0.1004	0.1425	0.065
Mof_C 	C 	0.5125	0.1435	0.0977	0.067
Mof_C 	C 	0.5114	0.1091	0.1077	-0.094
Mof_C 	C 	0.505	0.0807	0.0809	0.357
Mof_O 	O 	0.5036	0.0476	0.0935	-0.596
Mof_O 	O 	0.5025	0.0937	0.0483	-0.583
Mof_Re	Re	0.5216	0.2075	0.2927	0.624
Mof_C 	C 	0.5701	0.1987	0.2946	-0.023
Mof_O 	O 	0.6002	0.202	0.296	-0.114
Mof_C 	C 	0.5201	0.1582	0.2902	-0.042
Mof_O 	O 	0.527	0.1288	0.288	-0.122
Mof_C 	C 	0.5252	0.1979	0.3408	-0.023
Mof_O 	O 	0.5275	0.192	0.3702	-0.116
Mof_C 	C 	0.515	0.1877	0.1832	-0.039
Mof_C 	C 	0.5165	0.1776	0.2176	0.07
Mof_C 	C 	0.5178	0.2023	0.2435	-0.187
Mof_C 	C 	0.5176	0.2372	0.2351	-0.015
Mof_C 	C 	0.5162	0.2473	0.2007	-0.214
Mof_C 	C 	0.5149	0.2226	0.1747	0.093
Mof_C 	C 	0.4359	0.2817	0.2129	-2.395
Mof_O 	O 	0.432	0.3012	0.191	-0.548
Mof_Cl	Cl	0.4625	0.2871	0.2142	0.592
Mof_Cl	Cl	0.4203	0.7916	0.7105	2.194
Mof_N 	N 	0.4885	0.7277	0.7257	-0.186
Mof_C 	C 	0.4096	0.7243	0.726	-0.184
Mof_C 	C 	0.5213	0.7387	0.7353	0.065
Mof_C 	C 	0.4847	0.7027	0.7004	0.06
Mof_O 	O 	0.3861	0.7103	0.7131	-0.15
Mof_C 	C 	0.5503	0.7247	0.7195	0.012
Mof_C 	C 	0.5137	0.6886	0.6846	-0.032
Mof_C 	C 	0.5465	0.6996	0.6941	0.018
Mof_C 	C 	0.513	0.6607	0.6575	0.036
Mof_C 	C 	0.5118	0.6263	0.6674	-0.024
Mof_C 	C 	0.5133	0.6694	0.6226	-0.021
Mof_C 	C 	0.5111	0.6004	0.6425	0.068
Mof_C 	C 	0.5125	0.6435	0.5977	0.07
Mof_C 	C 	0.5114	0.6091	0.6077	-0.094
Mof_C 	C 	0.505	0.5807	0.5809	0.357
Mof_O 	O 	0.5036	0.5476	0.5935	-0.589
Mof_O 	O 	0.5025	0.5937	0.5483	-0.577
Mof_Re	Re	0.5216	0.7075	0.7927	0.625
Mof_C 	C 	0.5701	0.6987	0.7946	-0.023
Mof_O 	O 	0.6002	0.702	0.796	-0.113
Mof_C 	C 	0.5201	0.6582	0.7902	-0.041
Mof_O 	O 	0.527	0.6288	0.788	-0.118
Mof_C 	C 	0.5252	0.6979	0.8408	-0.022
Mof_O 	O 	0.5275	0.692	0.8702	-0.111
Mof_C 	C 	0.515	0.6877	0.6832	-0.039
Mof_C 	C 	0.5165	0.6776	0.7176	0.071
Mof_C 	C 	0.5178	0.7023	0.7435	-0.187
Mof_C 	C 	0.5176	0.7372	0.7351	-0.015
Mof_C 	C 	0.5162	0.7473	0.7007	-0.215
Mof_C 	C 	0.5149	0.7226	0.6747	0.094
Mof_C 	C 	0.4359	0.7817	0.7129	-2.39
Mof_O 	O 	0.432	0.8012	0.691	-0.543
Mof_Cl	Cl	0.4625	0.7871	0.7142	0.59
Mof_Cl	Cl	0.0797	0.2916	0.2895	2.225
Mof_N 	N 	0.0115	0.2277	0.2743	-0.198
Mof_C 	C 	0.0904	0.2243	0.274	-0.189
Mof_C 	C 	0.9787	0.2387	0.2647	0.073
Mof_C 	C 	0.0153	0.2027	0.2996	0.024
Mof_O 	O 	0.1139	0.2103	0.2869	-0.155
Mof_C 	C 	0.9497	0.2247	0.2805	0.009
Mof_C 	C 	0.9863	0.1886	0.3154	-0.027
Mof_C 	C 	0.9535	0.1996	0.3059	0.011
Mof_C 	C 	0.987	0.1607	0.3425	0.034
Mof_C 	C 	0.9882	0.1263	0.3326	-0.019
Mof_C 	C 	0.9867	0.1694	0.3774	-0.015
Mof_C 	C 	0.9889	0.1004	0.3575	0.069
Mof_C 	C 	0.9875	0.1435	0.4023	0.074
Mof_C 	C 	0.9886	0.1091	0.3923	-0.093
Mof_C 	C 	0.995	0.0807	0.4191	0.359
Mof_O 	O 	0.9964	0.0476	0.4065	-0.585
Mof_O 	O 	0.9975	0.0937	0.4517	-0.566
Mof_Re	Re	0.9784	0.2075	0.2073	0.631
Mof_C 	C 	0.9299	0.1987	0.2054	-0.026
Mof_O 	O 	0.8998	0.202	0.204	-0.113
Mof_C 	C 	0.9799	0.1582	0.2098	-0.037
Mof_O 	O 	0.973	0.1288	0.212	-0.119
Mof_C 	C 	0.9748	0.1979	0.1592	-0.019
Mof_O 	O 	0.9725	0.192	0.1298	-0.114
Mof_C 	C 	0.985	0.1877	0.3168	-0.029
Mof_C 	C 	0.9835	0.1776	0.2824	0.081
Mof_C 	C 	0.9822	0.2023	0.2565	-0.178
Mof_C 	C 	0.9824	0.2372	0.2649	-0.016
Mof_C 	C 	0.9838	0.2473	0.2993	-0.206
Mof_C 	C 	0.9851	0.2226	0.3253	0.105
Mof_C 	C 	0.0641	0.2817	0.2871	-2.416
Mof_O 	O 	0.068	0.3012	0.309	-0.559
Mof_Cl	Cl	0.0375	0.2871	0.2858	0.584
Mof_Cl	Cl	0.0797	0.7916	0.7895	2.221
Mof_N 	N 	0.0115	0.7277	0.7743	-0.198
Mof_C 	C 	0.0904	0.7243	0.774	-0.187
Mof_C 	C 	0.9787	0.7387	0.7647	0.073
Mof_C 	C 	0.0153	0.7027	0.7996	0.026
Mof_O 	O 	0.1139	0.7103	0.7869	-0.152
Mof_C 	C 	0.9497	0.7247	0.7805	0.008
Mof_C 	C 	0.9863	0.6886	0.8154	-0.027
Mof_C 	C 	0.9535	0.6996	0.8059	0.011
Mof_C 	C 	0.987	0.6607	0.8425	0.034
Mof_C 	C 	0.9882	0.6263	0.8326	-0.017
Mof_C 	C 	0.9867	0.6694	0.8774	-0.013
Mof_C 	C 	0.9889	0.6004	0.8575	0.073
Mof_C 	C 	0.9875	0.6435	0.9023	0.078
Mof_C 	C 	0.9886	0.6091	0.8923	-0.093
Mof_C 	C 	0.995	0.5807	0.9191	0.359
Mof_O 	O 	0.9964	0.5476	0.9065	-0.579
Mof_O 	O 	0.9975	0.5937	0.9517	-0.559
Mof_Re	Re	0.9784	0.7075	0.7073	0.632
Mof_C 	C 	0.9299	0.6987	0.7054	-0.025
Mof_O 	O 	0.8998	0.702	0.704	-0.113
Mof_C 	C 	0.9799	0.6582	0.7098	-0.036
Mof_O 	O 	0.973	0.6288	0.712	-0.115
Mof_C 	C 	0.9748	0.6979	0.6592	-0.019
Mof_O 	O 	0.9725	0.692	0.6298	-0.109
Mof_C 	C 	0.985	0.6877	0.8168	-0.029
Mof_C 	C 	0.9835	0.6776	0.7824	0.082
Mof_C 	C 	0.9822	0.7023	0.7565	-0.179
Mof_C 	C 	0.9824	0.7372	0.7649	-0.016
Mof_C 	C 	0.9838	0.7473	0.7993	-0.206
Mof_C 	C 	0.9851	0.7226	0.8253	0.107
Mof_C 	C 	0.0641	0.7817	0.7871	-2.411
Mof_O 	O 	0.068	0.8012	0.809	-0.555
Mof_Cl	Cl	0.0375	0.7871	0.7858	0.582
Mof_Cl	Cl	0.5797	0.2916	0.7895	2.195
Mof_N 	N 	0.5115	0.2277	0.7743	-0.186
Mof_C 	C 	0.5904	0.2243	0.774	-0.185
Mof_C 	C 	0.4787	0.2387	0.7647	0.065
Mof_C 	C 	0.5153	0.2027	0.7996	0.06
Mof_O 	O 	0.6139	0.2103	0.7869	-0.151
Mof_C 	C 	0.4497	0.2247	0.7805	0.012
Mof_C 	C 	0.4863	0.1886	0.8154	-0.032
Mof_C 	C 	0.4535	0.1996	0.8059	0.018
Mof_C 	C 	0.487	0.1607	0.8425	0.037
Mof_C 	C 	0.4882	0.1263	0.8326	-0.025
Mof_C 	C 	0.4867	0.1694	0.8774	-0.02
Mof_C 	C 	0.4889	0.1004	0.8575	0.065
Mof_C 	C 	0.4875	0.1435	0.9023	0.073
Mof_C 	C 	0.4886	0.1091	0.8923	-0.094
Mof_C 	C 	0.495	0.0807	0.9191	0.357
Mof_O 	O 	0.4964	0.0476	0.9065	-0.595
Mof_O 	O 	0.4975	0.0937	0.9517	-0.57
Mof_Re	Re	0.4784	0.2075	0.7073	0.624
Mof_C 	C 	0.4299	0.1987	0.7054	-0.023
Mof_O 	O 	0.3998	0.202	0.704	-0.114
Mof_C 	C 	0.4799	0.1582	0.7098	-0.042
Mof_O 	O 	0.473	0.1288	0.712	-0.122
Mof_C 	C 	0.4748	0.1979	0.6592	-0.023
Mof_O 	O 	0.4725	0.192	0.6298	-0.116
Mof_C 	C 	0.485	0.1877	0.8168	-0.039
Mof_C 	C 	0.4835	0.1776	0.7824	0.07
Mof_C 	C 	0.4822	0.2023	0.7565	-0.187
Mof_C 	C 	0.4824	0.2372	0.7649	-0.015
Mof_C 	C 	0.4838	0.2473	0.7993	-0.215
Mof_C 	C 	0.4851	0.2226	0.8253	0.095
Mof_C 	C 	0.5641	0.2817	0.7871	-2.392
Mof_O 	O 	0.568	0.3012	0.809	-0.543
Mof_Cl	Cl	0.5375	0.2871	0.7858	0.591
Mof_Cl	Cl	0.5797	0.7916	0.2895	2.194
Mof_N 	N 	0.5115	0.7277	0.2743	-0.186
Mof_C 	C 	0.5904	0.7243	0.274	-0.185
Mof_C 	C 	0.4787	0.7387	0.2647	0.065
Mof_C 	C 	0.5153	0.7027	0.2996	0.06
Mof_O 	O 	0.6139	0.7103	0.2869	-0.151
Mof_C 	C 	0.4497	0.7247	0.2805	0.012
Mof_C 	C 	0.4863	0.6886	0.3154	-0.032
Mof_C 	C 	0.4535	0.6996	0.3059	0.018
Mof_C 	C 	0.487	0.6607	0.3425	0.037
Mof_C 	C 	0.4882	0.6263	0.3326	-0.024
Mof_C 	C 	0.4867	0.6694	0.3774	-0.021
Mof_C 	C 	0.4889	0.6004	0.3575	0.068
Mof_C 	C 	0.4875	0.6435	0.4023	0.07
Mof_C 	C 	0.4886	0.6091	0.3923	-0.094
Mof_C 	C 	0.495	0.5807	0.4191	0.357
Mof_O 	O 	0.4964	0.5476	0.4065	-0.589
Mof_O 	O 	0.4975	0.5937	0.4517	-0.576
Mof_Re	Re	0.4784	0.7075	0.2073	0.624
Mof_C 	C 	0.4299	0.6987	0.2054	-0.023
Mof_O 	O 	0.3998	0.702	0.204	-0.114
Mof_C 	C 	0.4799	0.6582	0.2098	-0.042
Mof_O 	O 	0.473	0.6288	0.212	-0.12
Mof_C 	C 	0.4748	0.6979	0.1592	-0.023
Mof_O 	O 	0.4725	0.692	0.1298	-0.118
Mof_C 	C 	0.485	0.6877	0.3168	-0.039
Mof_C 	C 	0.4835	0.6776	0.2824	0.071
Mof_C 	C 	0.4822	0.7023	0.2565	-0.187
Mof_C 	C 	0.4824	0.7372	0.2649	-0.015
Mof_C 	C 	0.4838	0.7473	0.2993	-0.215
Mof_C 	C 	0.4851	0.7226	0.3253	0.094
Mof_C 	C 	0.5641	0.7817	0.2871	-2.39
Mof_O 	O 	0.568	0.8012	0.309	-0.543
Mof_Cl	Cl	0.5375	0.7871	0.2858	0.59
Mof_Cl	Cl	0.9203	0.7084	0.2895	2.169
Mof_N 	N 	0.9885	0.7723	0.2743	-0.175
Mof_C 	C 	0.9096	0.7757	0.274	-0.181
Mof_C 	C 	0.0213	0.7613	0.2647	0.056
Mof_C 	C 	0.9847	0.7973	0.2996	0.096
Mof_O 	O 	0.8861	0.7897	0.2869	-0.147
Mof_C 	C 	0.0503	0.7753	0.2805	0.015
Mof_C 	C 	0.0137	0.8114	0.3154	-0.038
Mof_C 	C 	0.0465	0.8004	0.3059	0.024
Mof_C 	C 	0.013	0.8393	0.3425	0.039
Mof_C 	C 	0.0118	0.8737	0.3326	-0.028
Mof_C 	C 	0.0133	0.8306	0.3774	-0.027
Mof_C 	C 	0.0111	0.8996	0.3575	0.067
Mof_C 	C 	0.0125	0.8565	0.4023	0.066
Mof_C 	C 	0.0114	0.8909	0.3923	-0.095
Mof_C 	C 	0.005	0.9193	0.4191	0.355
Mof_O 	O 	0.0036	0.9524	0.4065	-0.591
Mof_O 	O 	0.0025	0.9063	0.4517	-0.586
Mof_Re	Re	0.0216	0.7925	0.2073	0.617
Mof_C 	C 	0.0701	0.8013	0.2054	-0.021
Mof_O 	O 	0.1002	0.798	0.204	-0.114
Mof_C 	C 	0.0201	0.8418	0.2098	-0.046
Mof_O 	O 	0.027	0.8712	0.212	-0.122
Mof_C 	C 	0.0252	0.8021	0.1592	-0.026
Mof_O 	O 	0.0275	0.808	0.1298	-0.122
Mof_C 	C 	0.015	0.8123	0.3168	-0.049
Mof_C 	C 	0.0165	0.8224	0.2824	0.062
Mof_C 	C 	0.0178	0.7977	0.2565	-0.196
Mof_C 	C 	0.0176	0.7628	0.2649	-0.014
Mof_C 	C 	0.0162	0.7527	0.2993	-0.224
Mof_C 	C 	0.0149	0.7774	0.3253	0.082
Mof_C 	C 	0.9359	0.7183	0.2871	-2.371
Mof_O 	O 	0.932	0.6988	0.309	-0.531
Mof_Cl	Cl	0.9625	0.7129	0.2858	0.599
Mof_Cl	Cl	0.9203	0.2084	0.7895	2.17
Mof_N 	N 	0.9885	0.2723	0.7743	-0.175
Mof_C 	C 	0.9096	0.2757	0.774	-0.181
Mof_C 	C 	0.0213	0.2613	0.7647	0.056
Mof_C 	C 	0.9847	0.2973	0.7996	0.096
Mof_O 	O 	0.8861	0.2897	0.7869	-0.147
Mof_C 	C 	0.0503	0.2753	0.7805	0.015
Mof_C 	C 	0.0137	0.3114	0.8154	-0.038
Mof_C 	C 	0.0465	0.3004	0.8059	0.024
Mof_C 	C 	0.013	0.3393	0.8425	0.039
Mof_C 	C 	0.0118	0.3737	0.8326	-0.03
Mof_C 	C 	0.0133	0.3306	0.8774	-0.026
Mof_C 	C 	0.0111	0.3996	0.8575	0.064
Mof_C 	C 	0.0125	0.3565	0.9023	0.069
Mof_C 	C 	0.0114	0.3909	0.8923	-0.095
Mof_C 	C 	0.005	0.4193	0.9191	0.355
Mof_O 	O 	0.0036	0.4524	0.9065	-0.598
Mof_O 	O 	0.0025	0.4063	0.9517	-0.579
Mof_Re	Re	0.0216	0.2925	0.7073	0.617
Mof_C 	C 	0.0701	0.3013	0.7054	-0.021
Mof_O 	O 	0.1002	0.298	0.704	-0.114
Mof_C 	C 	0.0201	0.3418	0.7098	-0.046
Mof_O 	O 	0.027	0.3712	0.712	-0.124
Mof_C 	C 	0.0252	0.3021	0.6592	-0.026
Mof_O 	O 	0.0275	0.308	0.6298	-0.12
Mof_C 	C 	0.015	0.3123	0.8168	-0.049
Mof_C 	C 	0.0165	0.3224	0.7824	0.061
Mof_C 	C 	0.0178	0.2977	0.7565	-0.196
Mof_C 	C 	0.0176	0.2628	0.7649	-0.014
Mof_C 	C 	0.0162	0.2527	0.7993	-0.224
Mof_C 	C 	0.0149	0.2774	0.8253	0.083
Mof_C 	C 	0.9359	0.2183	0.7871	-2.372
Mof_O 	O 	0.932	0.1988	0.809	-0.531
Mof_Cl	Cl	0.9625	0.2129	0.7858	0.6
Mof_Cl	Cl	0.4203	0.7084	0.7895	2.196
Mof_N 	N 	0.4885	0.7723	0.7743	-0.186
Mof_C 	C 	0.4096	0.7757	0.774	-0.184
Mof_C 	C 	0.5213	0.7613	0.7647	0.065
Mof_C 	C 	0.4847	0.7973	0.7996	0.061
Mof_O 	O 	0.3861	0.7897	0.7869	-0.148
Mof_C 	C 	0.5503	0.7753	0.7805	0.012
Mof_C 	C 	0.5137	0.8114	0.8154	-0.033
Mof_C 	C 	0.5465	0.8004	0.8059	0.018
Mof_C 	C 	0.513	0.8393	0.8425	0.037
Mof_C 	C 	0.5118	0.8737	0.8326	-0.022
Mof_C 	C 	0.5133	0.8306	0.8774	-0.019
Mof_C 	C 	0.5111	0.8996	0.8575	0.072
Mof_C 	C 	0.5125	0.8565	0.9023	0.074
Mof_C 	C 	0.5114	0.8909	0.8923	-0.094
Mof_C 	C 	0.505	0.9193	0.9191	0.357
Mof_O 	O 	0.5036	0.9524	0.9065	-0.582
Mof_O 	O 	0.5025	0.9063	0.9517	-0.569
Mof_Re	Re	0.5216	0.7925	0.7073	0.625
Mof_C 	C 	0.5701	0.8013	0.7054	-0.023
Mof_O 	O 	0.6002	0.798	0.704	-0.113
Mof_C 	C 	0.5201	0.8418	0.7098	-0.041
Mof_O 	O 	0.527	0.8712	0.712	-0.116
Mof_C 	C 	0.5252	0.8021	0.6592	-0.022
Mof_O 	O 	0.5275	0.808	0.6298	-0.113
Mof_C 	C 	0.515	0.8123	0.8168	-0.039
Mof_C 	C 	0.5165	0.8224	0.7824	0.072
Mof_C 	C 	0.5178	0.7977	0.7565	-0.187
Mof_C 	C 	0.5176	0.7628	0.7649	-0.015
Mof_C 	C 	0.5162	0.7527	0.7993	-0.215
Mof_C 	C 	0.5149	0.7774	0.8253	0.095
Mof_C 	C 	0.4359	0.7183	0.7871	-2.392
Mof_O 	O 	0.432	0.6988	0.809	-0.543
Mof_Cl	Cl	0.4625	0.7129	0.7858	0.591
Mof_Cl	Cl	0.4203	0.2084	0.2895	2.2
Mof_N 	N 	0.4885	0.2723	0.2743	-0.186
Mof_C 	C 	0.4096	0.2757	0.274	-0.185
Mof_C 	C 	0.5213	0.2613	0.2647	0.065
Mof_C 	C 	0.4847	0.2973	0.2996	0.06
Mof_O 	O 	0.3861	0.2897	0.2869	-0.151
Mof_C 	C 	0.5503	0.2753	0.2805	0.012
Mof_C 	C 	0.5137	0.3114	0.3154	-0.032
Mof_C 	C 	0.5465	0.3004	0.3059	0.018
Mof_C 	C 	0.513	0.3393	0.3425	0.037
Mof_C 	C 	0.5118	0.3737	0.3326	-0.024
Mof_C 	C 	0.5133	0.3306	0.3774	-0.021
Mof_C 	C 	0.5111	0.3996	0.3575	0.068
Mof_C 	C 	0.5125	0.3565	0.4023	0.07
Mof_C 	C 	0.5114	0.3909	0.3923	-0.094
Mof_C 	C 	0.505	0.4193	0.4191	0.357
Mof_O 	O 	0.5036	0.4524	0.4065	-0.589
Mof_O 	O 	0.5025	0.4063	0.4517	-0.577
Mof_Re	Re	0.5216	0.2925	0.2073	0.624
Mof_C 	C 	0.5701	0.3013	0.2054	-0.023
Mof_O 	O 	0.6002	0.298	0.204	-0.114
Mof_C 	C 	0.5201	0.3418	0.2098	-0.042
Mof_O 	O 	0.527	0.3712	0.212	-0.12
Mof_C 	C 	0.5252	0.3021	0.1592	-0.023
Mof_O 	O 	0.5275	0.308	0.1298	-0.118
Mof_C 	C 	0.515	0.3123	0.3168	-0.039
Mof_C 	C 	0.5165	0.3224	0.2824	0.071
Mof_C 	C 	0.5178	0.2977	0.2565	-0.187
Mof_C 	C 	0.5176	0.2628	0.2649	-0.015
Mof_C 	C 	0.5162	0.2527	0.2993	-0.215
Mof_C 	C 	0.5149	0.2774	0.3253	0.094
Mof_C 	C 	0.4359	0.2183	0.2871	-2.397
Mof_O 	O 	0.432	0.1988	0.309	-0.548
Mof_Cl	Cl	0.4625	0.2129	0.2858	0.593
Mof_Cl	Cl	0.0797	0.7084	0.7105	2.225
Mof_N 	N 	0.0115	0.7723	0.7257	-0.198
Mof_C 	C 	0.0904	0.7757	0.726	-0.187
Mof_C 	C 	0.9787	0.7613	0.7353	0.073
Mof_C 	C 	0.0153	0.7973	0.7004	0.026
Mof_O 	O 	0.1139	0.7897	0.7131	-0.152
Mof_C 	C 	0.9497	0.7753	0.7195	0.008
Mof_C 	C 	0.9863	0.8114	0.6846	-0.027
Mof_C 	C 	0.9535	0.8004	0.6941	0.011
Mof_C 	C 	0.987	0.8393	0.6575	0.034
Mof_C 	C 	0.9882	0.8737	0.6674	-0.016
Mof_C 	C 	0.9867	0.8306	0.6226	-0.015
Mof_C 	C 	0.9889	0.8996	0.6425	0.076
Mof_C 	C 	0.9875	0.8565	0.5977	0.075
Mof_C 	C 	0.9886	0.8909	0.6077	-0.093
Mof_C 	C 	0.995	0.9193	0.5809	0.359
Mof_O 	O 	0.9964	0.9524	0.5935	-0.572
Mof_O 	O 	0.9975	0.9063	0.5483	-0.566
Mof_Re	Re	0.9784	0.7925	0.7927	0.633
Mof_C 	C 	0.9299	0.8013	0.7946	-0.025
Mof_O 	O 	0.8998	0.798	0.796	-0.112
Mof_C 	C 	0.9799	0.8418	0.7902	-0.035
Mof_O 	O 	0.973	0.8712	0.788	-0.11
Mof_C 	C 	0.9748	0.8021	0.8408	-0.018
Mof_O 	O 	0.9725	0.808	0.8702	-0.104
Mof_C 	C 	0.985	0.8123	0.6832	-0.029
Mof_C 	C 	0.9835	0.8224	0.7176	0.083
Mof_C 	C 	0.9822	0.7977	0.7435	-0.179
Mof_C 	C 	0.9824	0.7628	0.7351	-0.016
Mof_C 	C 	0.9838	0.7527	0.7007	-0.206
Mof_C 	C 	0.9851	0.7774	0.6747	0.105
Mof_C 	C 	0.0641	0.7183	0.7129	-2.416
Mof_O 	O 	0.068	0.6988	0.691	-0.559
Mof_Cl	Cl	0.0375	0.7129	0.7142	0.583
Mof_Cl	Cl	0.0797	0.2084	0.2105	2.229
Mof_N 	N 	0.0115	0.2723	0.2257	-0.198
Mof_C 	C 	0.0904	0.2757	0.226	-0.188
Mof_C 	C 	0.9787	0.2613	0.2353	0.073
Mof_C 	C 	0.0153	0.2973	0.2004	0.024
Mof_O 	O 	0.1139	0.2897	0.2131	-0.155
Mof_C 	C 	0.9497	0.2753	0.2195	0.009
Mof_C 	C 	0.9863	0.3114	0.1846	-0.027
Mof_C 	C 	0.9535	0.3004	0.1941	0.011
Mof_C 	C 	0.987	0.3393	0.1575	0.034
Mof_C 	C 	0.9882	0.3737	0.1674	-0.018
Mof_C 	C 	0.9867	0.3306	0.1226	-0.017
Mof_C 	C 	0.9889	0.3996	0.1425	0.072
Mof_C 	C 	0.9875	0.3565	0.0977	0.071
Mof_C 	C 	0.9886	0.3909	0.1077	-0.093
Mof_C 	C 	0.995	0.4193	0.0809	0.359
Mof_O 	O 	0.9964	0.4524	0.0935	-0.579
Mof_O 	O 	0.9975	0.4063	0.0483	-0.572
Mof_Re	Re	0.9784	0.2925	0.2927	0.632
Mof_C 	C 	0.9299	0.3013	0.2946	-0.025
Mof_O 	O 	0.8998	0.298	0.296	-0.112
Mof_C 	C 	0.9799	0.3418	0.2902	-0.036
Mof_O 	O 	0.973	0.3712	0.288	-0.114
Mof_C 	C 	0.9748	0.3021	0.3408	-0.019
Mof_O 	O 	0.9725	0.308	0.3702	-0.109
Mof_C 	C 	0.985	0.3123	0.1832	-0.029
Mof_C 	C 	0.9835	0.3224	0.2176	0.082
Mof_C 	C 	0.9822	0.2977	0.2435	-0.178
Mof_C 	C 	0.9824	0.2628	0.2351	-0.016
Mof_C 	C 	0.9838	0.2527	0.2007	-0.205
Mof_C 	C 	0.9851	0.2774	0.1747	0.104
Mof_C 	C 	0.0641	0.2183	0.2129	-2.421
Mof_O 	O 	0.068	0.1988	0.191	-0.564
Mof_Cl	Cl	0.0375	0.2129	0.2142	0.585
Mof_Cl	Cl	0.5797	0.7084	0.2105	2.198
Mof_N 	N 	0.5115	0.7723	0.2257	-0.186
Mof_C 	C 	0.5904	0.7757	0.226	-0.184
Mof_C 	C 	0.4787	0.7613	0.2353	0.065
Mof_C 	C 	0.5153	0.7973	0.2004	0.06
Mof_O 	O 	0.6139	0.7897	0.2131	-0.151
Mof_C 	C 	0.4497	0.7753	0.2195	0.012
Mof_C 	C 	0.4863	0.8114	0.1846	-0.032
Mof_C 	C 	0.4535	0.8004	0.1941	0.018
Mof_C 	C 	0.487	0.8393	0.1575	0.037
Mof_C 	C 	0.4882	0.8737	0.1674	-0.022
Mof_C 	C 	0.4867	0.8306	0.1226	-0.023
Mof_C 	C 	0.4889	0.8996	0.1425	0.071
Mof_C 	C 	0.4875	0.8565	0.0977	0.067
Mof_C 	C 	0.4886	0.8909	0.1077	-0.094
Mof_C 	C 	0.495	0.9193	0.0809	0.357
Mof_O 	O 	0.4964	0.9524	0.0935	-0.583
Mof_O 	O 	0.4975	0.9063	0.0483	-0.582
Mof_Re	Re	0.4784	0.7925	0.2927	0.625
Mof_C 	C 	0.4299	0.8013	0.2946	-0.023
Mof_O 	O 	0.3998	0.798	0.296	-0.113
Mof_C 	C 	0.4799	0.8418	0.2902	-0.041
Mof_O 	O 	0.473	0.8712	0.288	-0.116
Mof_C 	C 	0.4748	0.8021	0.3408	-0.022
Mof_O 	O 	0.4725	0.808	0.3702	-0.113
Mof_C 	C 	0.485	0.8123	0.1832	-0.039
Mof_C 	C 	0.4835	0.8224	0.2176	0.072
Mof_C 	C 	0.4822	0.7977	0.2435	-0.187
Mof_C 	C 	0.4824	0.7628	0.2351	-0.015
Mof_C 	C 	0.4838	0.7527	0.2007	-0.215
Mof_C 	C 	0.4851	0.7774	0.1747	0.093
Mof_C 	C 	0.5641	0.7183	0.2129	-2.395
Mof_O 	O 	0.568	0.6988	0.191	-0.548
Mof_Cl	Cl	0.5375	0.7129	0.2142	0.592
Mof_Cl	Cl	0.5797	0.2084	0.7105	2.2
Mof_N 	N 	0.5115	0.2723	0.7257	-0.186
Mof_C 	C 	0.5904	0.2757	0.726	-0.185
Mof_C 	C 	0.4787	0.2613	0.7353	0.065
Mof_C 	C 	0.5153	0.2973	0.7004	0.06
Mof_O 	O 	0.6139	0.2897	0.7131	-0.151
Mof_C 	C 	0.4497	0.2753	0.7195	0.012
Mof_C 	C 	0.4863	0.3114	0.6846	-0.032
Mof_C 	C 	0.4535	0.3004	0.6941	0.018
Mof_C 	C 	0.487	0.3393	0.6575	0.037
Mof_C 	C 	0.4882	0.3737	0.6674	-0.024
Mof_C 	C 	0.4867	0.3306	0.6226	-0.021
Mof_C 	C 	0.4889	0.3996	0.6425	0.068
Mof_C 	C 	0.4875	0.3565	0.5977	0.07
Mof_C 	C 	0.4886	0.3909	0.6077	-0.094
Mof_C 	C 	0.495	0.4193	0.5809	0.357
Mof_O 	O 	0.4964	0.4524	0.5935	-0.589
Mof_O 	O 	0.4975	0.4063	0.5483	-0.577
Mof_Re	Re	0.4784	0.2925	0.7927	0.625
Mof_C 	C 	0.4299	0.3013	0.7946	-0.023
Mof_O 	O 	0.3998	0.298	0.796	-0.113
Mof_C 	C 	0.4799	0.3418	0.7902	-0.041
Mof_O 	O 	0.473	0.3712	0.788	-0.118
Mof_C 	C 	0.4748	0.3021	0.8408	-0.022
Mof_O 	O 	0.4725	0.308	0.8702	-0.111
Mof_C 	C 	0.485	0.3123	0.6832	-0.039
Mof_C 	C 	0.4835	0.3224	0.7176	0.071
Mof_C 	C 	0.4822	0.2977	0.7435	-0.187
Mof_C 	C 	0.4824	0.2628	0.7351	-0.015
Mof_C 	C 	0.4838	0.2527	0.7007	-0.215
Mof_C 	C 	0.4851	0.2774	0.6747	0.094
Mof_C 	C 	0.5641	0.2183	0.7129	-2.396
Mof_O 	O 	0.568	0.1988	0.691	-0.548
Mof_Cl	Cl	0.5375	0.2129	0.7142	0.592
Mof_Re	Re	0.75	0.9438	0.25	1.259
Mof_Re	Re	0.75	0.4438	0.75	1.261
Mof_Re	Re	0.25	0.0562	0.25	1.264
Mof_Re	Re	0.25	0.5562	0.75	1.261
Mof_Re	Re	0.25	0.9438	0.75	1.258
Mof_Re	Re	0.25	0.4438	0.25	1.261
Mof_Re	Re	0.75	0.0562	0.75	1.264
Mof_Re	Re	0.75	0.5562	0.25	1.261
Mof_Re	Re	0.25	0.75	0.9438	1.259
Mof_Re	Re	0.25	0.25	0.4438	1.261
Mof_Re	Re	0.25	0.25	0.0562	1.264
Mof_Re	Re	0.25	0.75	0.5562	1.261
Mof_Re	Re	0.75	0.25	0.9438	1.258
Mof_Re	Re	0.75	0.75	0.4438	1.261
Mof_Re	Re	0.75	0.75	0.0562	1.264
Mof_Re	Re	0.75	0.25	0.5562	1.261
Mof_Re	Re	0.9438	0.25	0.75	1.259
Mof_Re	Re	0.4438	0.25	0.25	1.261
Mof_Re	Re	0.0562	0.25	0.25	1.264
Mof_Re	Re	0.5562	0.25	0.75	1.261
Mof_Re	Re	0.9438	0.75	0.25	1.258
Mof_Re	Re	0.4438	0.75	0.75	1.261
Mof_Re	Re	0.0562	0.75	0.75	1.264
Mof_Re	Re	0.5562	0.75	0.25	1.261
Mof_Zr	Zr	0.56421	0	-0	3.202
Mof_Zr	Zr	0.56421	0.5	0.5	3.208
Mof_Zr	Zr	0.06421	-3.47319e-33	0.5	3.205
Mof_Zr	Zr	0.06421	0.5	-0	3.205
Mof_Zr	Zr	0.43579	0	-0	3.202
Mof_Zr	Zr	0.43579	0.5	0.5	3.208
Mof_Zr	Zr	0.93579	-3.47319e-33	0.5	3.205
Mof_Zr	Zr	0.93579	0.5	-0	3.205
Mof_Zr	Zr	6.94637e-33	0.56421	-0	3.202
Mof_Zr	Zr	-1.59849e-33	0.06421	0.5	3.205
Mof_Zr	Zr	0.5	0.56421	0.5	3.208
Mof_Zr	Zr	0.5	0.06421	-0	3.205
Mof_Zr	Zr	-3.47319e-33	0.43579	-0	3.202
Mof_Zr	Zr	5.34788e-33	0.93579	0.5	3.205
Mof_Zr	Zr	0.5	0.43579	0.5	3.208
Mof_Zr	Zr	0.5	0.93579	-0	3.205
Mof_Zr	Zr	9.06182e-33	0	0.56421	3.202
Mof_Zr	Zr	2.40749e-34	0.5	0.06421	3.205
Mof_Zr	Zr	0.5	0	0.06421	3.205
Mof_Zr	Zr	0.5	0.5	0.56421	3.208
Mof_Zr	Zr	-1.83923e-33	-6.94637e-33	0.43579	3.202
Mof_Zr	Zr	3.50865e-33	0.5	0.93579	3.205
Mof_Zr	Zr	0.5	-6.94637e-33	0.93579	3.205
Mof_Zr	Zr	0.5	0.5	0.43579	3.208
Mof_O 	O 	0.5276	0.0276	0.0276	-1.469
Mof_O 	O 	0.5276	0.5276	0.5276	-1.456
Mof_O 	O 	0.4724	0.9724	0.0276	-1.453
Mof_O 	O 	0.4724	0.4724	0.5276	-1.456
Mof_O 	O 	0.9724	0.9724	0.5276	-1.438
Mof_O 	O 	0.4724	0.0276	0.9724	-1.453
Mof_O 	O 	0.4724	0.5276	0.4724	-1.456
Mof_O 	O 	0.9724	0.5276	0.9724	-1.438
Mof_O 	O 	0.5276	0.9724	0.9724	-1.438
Mof_O 	O 	0.5276	0.4724	0.4724	-1.456
Mof_O 	O 	0.0276	0.5276	0.0276	-1.469
Mof_O 	O 	0.0276	0.4724	0.9724	-1.453
Mof_O 	O 	0.9724	0.4724	0.0276	-1.453
Mof_O 	O 	0.0276	0.0276	0.5276	-1.469
Mof_O 	O 	0.9724	0.0276	0.4724	-1.453
Mof_O 	O 	0.0276	0.9724	0.4724	-1.453
Mof_O 	O 	0.5379	0.9621	0.0379	-0.98
Mof_O 	O 	0.5379	0.4621	0.5379	-0.981
Mof_O 	O 	0.4621	0.0379	0.0379	-1.001
Mof_O 	O 	0.4621	0.5379	0.5379	-0.981
Mof_O 	O 	0.9621	0.0379	0.5379	-0.98
Mof_O 	O 	0.9621	0.5379	0.0379	-0.98
Mof_O 	O 	0.4621	0.9621	0.9621	-0.959
Mof_O 	O 	0.4621	0.4621	0.4621	-0.981
Mof_O 	O 	0.5379	0.0379	0.9621	-0.98
Mof_O 	O 	0.5379	0.5379	0.4621	-0.981
Mof_O 	O 	0.0379	0.5379	0.9621	-0.98
Mof_O 	O 	0.0379	0.4621	0.0379	-1.001
Mof_O 	O 	0.0379	0.9621	0.5379	-0.98
Mof_O 	O 	0.9621	0.4621	0.9621	-0.959
Mof_O 	O 	0.0379	0.0379	0.4621	-1.001
Mof_O 	O 	0.9621	0.9621	0.4621	-0.959
_end
