data_functionalizedCrystal
_audit_creation_method	'EQeq! by Chris Wilmer'
_symmetry_space_group_name_H-M	'P1'
_symmetry_Int_Tables_number	1
_symmetry_cell_setting	triclinic
loop_
_symmetry_equiv_pos_as_xyz
  x,y,z
_cell_length_a	16.9323
_cell_length_b	16.9323
_cell_length_c	16.9323
_cell_angle_alpha	67.017
_cell_angle_beta	67.017
_cell_angle_gamma	67.017
loop_
_atom_site_label
_atom_site_type_symbol
_atom_site_fract_x
_atom_site_fract_y
_atom_site_fract_z
_atom_site_charge
Mof_Cu	Cu	0.57464	0.00529	0.00529	0.897
Mof_Cu	Cu	0.00529	0.57464	0.00529	0.897
Mof_Cu	Cu	0.99471	0.99471	0.42536	0.897
Mof_Cu	Cu	0.99471	0.42536	0.99471	0.897
Mof_Cu	Cu	0.00529	0.00529	0.57464	0.897
Mof_Cu	Cu	0.42536	0.99471	0.99471	0.897
Mof_B 	B 	0.4398	0.0325	0.5905	0.179
Mof_B 	B 	0.4033	0.071	0.4947	0.256
Mof_B 	B 	0.4398	0.5905	0.0325	0.179
Mof_B 	B 	0.4095	0.5602	0.9675	0.179
Mof_B 	B 	0.929	0.5967	0.5053	0.256
Mof_B 	B 	0.4947	0.4033	0.071	0.256
Mof_B 	B 	0.1011	0.49345	0.49345	0.253
Mof_B 	B 	0.5602	0.4095	0.9675	0.179
Mof_B 	B 	0.9675	0.5602	0.4095	0.179
Mof_B 	B 	0.4033	0.4947	0.071	0.256
Mof_B 	B 	0.9675	0.4095	0.5602	0.179
Mof_B 	B 	0.5053	0.5967	0.929	0.256
Mof_B 	B 	0.929	0.5053	0.5967	0.256
Mof_B 	B 	0.0325	0.4398	0.5905	0.179
Mof_B 	B 	0.5967	0.5053	0.929	0.256
Mof_B 	B 	0.071	0.4947	0.4033	0.256
Mof_B 	B 	0.49345	0.1011	0.49345	0.253
Mof_B 	B 	0.5905	0.4398	0.0325	0.179
Mof_B 	B 	0.5053	0.929	0.5967	0.255
Mof_B 	B 	0.071	0.4033	0.4947	0.255
Mof_B 	B 	0.5967	0.929	0.5053	0.255
Mof_B 	B 	0.5905	0.0325	0.4398	0.178
Mof_B 	B 	0.49345	0.49345	0.1011	0.252
Mof_B 	B 	0.50655	0.50655	0.8989	0.252
Mof_B 	B 	0.4095	0.9675	0.5602	0.178
Mof_B 	B 	0.5602	0.9675	0.4095	0.178
Mof_B 	B 	0.8989	0.50655	0.50655	0.252
Mof_B 	B 	0.4947	0.071	0.4033	0.255
Mof_B 	B 	0.50655	0.8989	0.50655	0.252
Mof_B 	B 	0.0325	0.5905	0.4398	0.178
Mof_H 	H 	0.5099	0.8792	0.6629	-0.125
Mof_H 	H 	0.0298	0.73235	0.73235	0.071
Mof_H 	H 	0.5055	0.7185	0.0182	0.087
Mof_H 	H 	0.9449	0.6012	0.3479	-0.102
Mof_H 	H 	0.3988	0.0551	0.6521	-0.102
Mof_H 	H 	0.48915	0.48915	0.1703	-0.123
Mof_H 	H 	0.4901	0.1208	0.3371	-0.125
Mof_H 	H 	0.0551	0.6521	0.3988	-0.102
Mof_H 	H 	0.48915	0.1703	0.48915	-0.123
Mof_H 	H 	0.26765	0.9702	0.26765	0.071
Mof_H 	H 	0.8297	0.51085	0.51085	-0.123
Mof_H 	H 	0.5099	0.6629	0.8792	-0.125
Mof_H 	H 	0.6629	0.8792	0.5099	-0.125
Mof_H 	H 	0.73235	0.0298	0.73235	0.071
Mof_H 	H 	0.0551	0.3988	0.6521	-0.102
Mof_H 	H 	0.3479	0.9449	0.6012	-0.102
Mof_H 	H 	0.5055	0.0182	0.7185	0.087
Mof_H 	H 	0.3479	0.6012	0.9449	-0.102
Mof_H 	H 	0.6521	0.3988	0.0551	-0.102
Mof_H 	H 	0.6521	0.0551	0.3988	-0.102
Mof_H 	H 	0.6012	0.3479	0.9449	-0.102
Mof_H 	H 	0.1703	0.48915	0.48915	-0.123
Mof_H 	H 	0.1208	0.4901	0.3371	-0.125
Mof_H 	H 	0.2815	0.4945	0.9818	0.087
Mof_H 	H 	0.9702	0.26765	0.26765	0.071
Mof_H 	H 	0.3371	0.1208	0.4901	-0.125
Mof_H 	H 	0.7185	0.5055	0.0182	0.087
Mof_H 	H 	0.7185	0.0182	0.5055	0.087
Mof_H 	H 	0.6629	0.5099	0.8792	-0.125
Mof_H 	H 	0.6012	0.9449	0.3479	-0.102
Mof_H 	H 	0.4945	0.9818	0.2815	0.087
Mof_H 	H 	0.3988	0.6521	0.0551	-0.102
Mof_H 	H 	0.0182	0.7185	0.5055	0.087
Mof_H 	H 	0.8792	0.5099	0.6629	-0.125
Mof_H 	H 	0.9818	0.4945	0.2815	0.087
Mof_H 	H 	0.4945	0.2815	0.9818	0.087
Mof_H 	H 	0.2815	0.9818	0.4945	0.087
Mof_H 	H 	0.3371	0.4901	0.1208	-0.125
Mof_H 	H 	0.9818	0.2815	0.4945	0.087
Mof_H 	H 	0.26765	0.26765	0.9702	0.071
Mof_H 	H 	0.0182	0.5055	0.7185	0.087
Mof_H 	H 	0.1208	0.3371	0.4901	-0.125
Mof_H 	H 	0.51085	0.51085	0.8297	-0.123
Mof_H 	H 	0.4901	0.3371	0.1208	-0.125
Mof_H 	H 	0.9449	0.3479	0.6012	-0.102
Mof_H 	H 	0.73235	0.73235	0.0298	0.071
Mof_H 	H 	0.8792	0.6629	0.5099	-0.125
Mof_H 	H 	0.51085	0.8297	0.51085	-0.123
Mof_C 	C 	0.02604	0.73894	0.61144	-0.013
Mof_C 	C 	0.69939	0.02759	0.69939	-0.044
Mof_C 	C 	0.9912	0.44765	0.44765	-0.542
Mof_C 	C 	0.02042	0.56562	0.69042	-0.157
Mof_C 	C 	0.30061	0.30061	0.97241	-0.044
Mof_C 	C 	0.69939	0.69939	0.02759	-0.044
Mof_C 	C 	0.57021	0.83551	0.02131	0.322
Mof_C 	C 	0.39655	0.39655	0.9821	0.202
Mof_C 	C 	0.97869	0.16449	0.42979	0.322
Mof_C 	C 	0.97958	0.43438	0.30958	-0.157
Mof_C 	C 	0.97396	0.38856	0.26106	-0.013
Mof_C 	C 	0.60345	0.0179	0.60345	0.202
Mof_C 	C 	0.9821	0.39655	0.39655	0.202
Mof_C 	C 	0.30958	0.43438	0.97958	-0.157
Mof_C 	C 	0.61144	0.02604	0.73894	-0.013
Mof_C 	C 	0.43438	0.30958	0.97958	-0.157
Mof_C 	C 	0.97869	0.42979	0.16449	0.322
Mof_C 	C 	0.60345	0.60345	0.0179	0.202
Mof_C 	C 	0.39655	0.9821	0.39655	0.202
Mof_C 	C 	0.26106	0.97396	0.38856	-0.013
Mof_C 	C 	0.38856	0.97396	0.26106	-0.013
Mof_C 	C 	0.55235	0.0088	0.55235	-0.542
Mof_C 	C 	0.69042	0.02042	0.56562	-0.157
Mof_C 	C 	0.55235	0.55235	0.0088	-0.542
Mof_C 	C 	0.0179	0.60345	0.60345	0.202
Mof_C 	C 	0.56562	0.69042	0.02042	-0.157
Mof_C 	C 	0.57021	0.02131	0.83551	0.322
Mof_C 	C 	0.44765	0.9912	0.44765	-0.542
Mof_C 	C 	0.16449	0.97869	0.42979	0.322
Mof_C 	C 	0.97241	0.30061	0.30061	-0.044
Mof_C 	C 	0.73894	0.61144	0.02604	-0.013
Mof_C 	C 	0.83551	0.57021	0.02131	0.322
Mof_C 	C 	0.30061	0.97241	0.30061	-0.044
Mof_C 	C 	0.69042	0.56562	0.02042	-0.157
Mof_C 	C 	0.42979	0.97869	0.16449	0.322
Mof_C 	C 	0.16449	0.42979	0.97869	0.322
Mof_C 	C 	0.02131	0.83551	0.57021	0.322
Mof_C 	C 	0.44765	0.44765	0.9912	-0.542
Mof_C 	C 	0.42979	0.16449	0.97869	0.322
Mof_C 	C 	0.02759	0.69939	0.69939	-0.044
Mof_C 	C 	0.61144	0.73894	0.02604	-0.013
Mof_C 	C 	0.02042	0.69042	0.56562	-0.157
Mof_C 	C 	0.26106	0.38856	0.97396	-0.013
Mof_C 	C 	0.97396	0.26106	0.38856	-0.013
Mof_C 	C 	0.83551	0.02131	0.57021	0.322
Mof_C 	C 	0.0088	0.55235	0.55235	-0.542
Mof_C 	C 	0.97958	0.30958	0.43438	-0.157
Mof_C 	C 	0.02604	0.61144	0.73894	-0.013
Mof_C 	C 	0.73894	0.02604	0.61144	-0.013
Mof_C 	C 	0.30958	0.97958	0.43438	-0.157
Mof_C 	C 	0.56562	0.02042	0.69042	-0.157
Mof_C 	C 	0.43438	0.97958	0.30958	-0.157
Mof_C 	C 	0.38856	0.26106	0.97396	-0.013
Mof_C 	C 	0.02131	0.57021	0.83551	0.322
Mof_O 	O 	0.87682	0.61752	0.02272	-0.4
Mof_O 	O 	0.87682	0.02272	0.61752	-0.4
Mof_O 	O 	0.38248	0.12318	0.97728	-0.4
Mof_O 	O 	0.97728	0.12318	0.38248	-0.4
Mof_O 	O 	0.13267	0.98557	0.50867	-0.403
Mof_O 	O 	0.12318	0.38248	0.97728	-0.4
Mof_O 	O 	0.61752	0.02272	0.87682	-0.4
Mof_O 	O 	0.49133	0.86733	0.01443	-0.403
Mof_O 	O 	0.50867	0.98557	0.13267	-0.403
Mof_O 	O 	0.98557	0.13267	0.50867	-0.403
Mof_O 	O 	0.98557	0.50867	0.13267	-0.403
Mof_O 	O 	0.01443	0.86733	0.49133	-0.403
Mof_O 	O 	0.49133	0.01443	0.86733	-0.403
Mof_O 	O 	0.61752	0.87682	0.02272	-0.4
Mof_O 	O 	0.02272	0.87682	0.61752	-0.4
Mof_O 	O 	0.38248	0.97728	0.12318	-0.4
Mof_O 	O 	0.02272	0.61752	0.87682	-0.4
Mof_O 	O 	0.13267	0.50867	0.98557	-0.403
Mof_O 	O 	0.50867	0.13267	0.98557	-0.403
Mof_O 	O 	0.97728	0.38248	0.12318	-0.4
Mof_O 	O 	0.86733	0.01443	0.49133	-0.403
Mof_O 	O 	0.01443	0.49133	0.86733	-0.403
Mof_O 	O 	0.86733	0.49133	0.01443	-0.403
Mof_O 	O 	0.12318	0.97728	0.38248	-0.4
_end
