data_functionalizedCrystal
_audit_creation_method	'EQeq! by Chris Wilmer'
_symmetry_space_group_name_H-M	'P1'
_symmetry_Int_Tables_number	1
_symmetry_cell_setting	triclinic
loop_
_symmetry_equiv_pos_as_xyz
  x,y,z
_cell_length_a	16.279
_cell_length_b	6.82
_cell_length_c	23.711
_cell_angle_alpha	90
_cell_angle_beta	103.97
_cell_angle_gamma	90
loop_
_atom_site_label
_atom_site_type_symbol
_atom_site_fract_x
_atom_site_fract_y
_atom_site_fract_z
_atom_site_charge
Mof_Zn	Zn	0.17448	0.58053	0.72299	1.202
Mof_Zn	Zn	0.00321	0.32605	0.75473	1.208
Mof_Br	Br	0.09178	0.12275	0.57236	-0.271
Mof_O 	O 	0.0455	0.5935	0.33225	-0.434
Mof_O 	O 	0.046	0.2602	0.34115	-0.43
Mof_O 	O 	0.0817	0.5806	0.76425	-0.626
Mof_C 	C 	0.2212	0.0747	0.7224	0.135
Mof_O 	O 	0.1266	0.5467	0.64027	-0.468
Mof_O 	O 	0.2527	0.5696	0.6282	-0.347
Mof_N 	N 	0.1732	0.9124	0.72041	-0.189
Mof_C 	C 	0.586	0.0883	0.6588	0.038
Mof_C 	C 	0.1792	0.54	0.6097	0.428
Mof_C 	C 	0.055	0.436	0.3608	0.337
Mof_C 	C 	0.0834	0.4614	0.4257	0.018
Mof_N 	N 	0.0979	0.9833	0.72527	-0.168
Mof_N 	N 	0.1017	0.1703	0.73067	-0.173
Mof_N 	N 	0.7026	0.0848	0.7319	-0.263
Mof_C 	C 	0.1027	0.3334	0.5236	0.201
Mof_C 	C 	0.635	0.0818	0.753	0.108
Mof_H 	H 	0.636	0.079	0.7924	0.006
Mof_C 	C 	0.149	0.6535	0.5069	0.078
Mof_H 	H 	0.1745	0.771	0.5214	0.029
Mof_N 	N 	0.1787	0.2341	0.72991	-0.179
Mof_C 	C 	0.1444	0.5032	0.5458	-0.166
Mof_C 	C 	0.1182	0.6356	0.449	-0.096
Mof_H 	H 	0.1205	0.7417	0.4248	0.09
Mof_C 	C 	0.0741	0.3033	0.4644	-0.145
Mof_H 	H 	0.0495	0.1848	0.4499	0.127
Mof_C 	C 	0.6688	0.0852	0.674	-0.006
Mof_H 	H 	0.7018	0.0834	0.647	0.019
Mof_N 	N 	0.5661	0.0833	0.7111	-0.139
Mof_C 	C 	0.3115	0.058	0.7194	-0.02
Mof_C 	C 	0.374	0.0892	0.76876	-0.01
Mof_H 	H 	0.3601	0.1102	0.8041	0.015
Mof_C 	C 	0.45719	0.0894	0.76612	-0.032
Mof_H 	H 	0.4997	0.1106	0.7996	0.025
Mof_C 	C 	0.4778	0.0585	0.71411	0.037
Mof_C 	C 	0.4152	0.0272	0.66476	-0.034
Mof_H 	H 	0.4292	0.0062	0.6295	0.032
Mof_C 	C 	0.3321	0.027	0.66739	-0.008
Mof_H 	H 	0.2896	0.0058	0.6339	0.026
Mof_C 	C 	0.3113	0.0862	0.71949	-0.021
Mof_C 	C 	0.3748	0.0904	0.76989	-0.006
Mof_H 	H 	0.3612	0.0895	0.8058	0.017
Mof_C 	C 	0.4583	0.096	0.76705	-0.027
Mof_H 	H 	0.5011	0.0989	0.8011	0.029
Mof_C 	C 	0.4784	0.0974	0.71379	0.032
Mof_C 	C 	0.4149	0.0931	0.66338	-0.036
Mof_H 	H 	0.4285	0.094	0.6275	0.035
Mof_C 	C 	0.3314	0.0875	0.66623	-0.013
Mof_H 	H 	0.2885	0.0847	0.6322	0.035
Mof_Zn	Zn	0.82552	0.08053	0.77701	1.202
Mof_Zn	Zn	0.99679	0.82605	0.74527	1.207
Mof_Br	Br	0.90822	0.62275	0.92764	-0.268
Mof_O 	O 	0.9545	0.0935	0.16775	-0.43
Mof_O 	O 	0.954	0.7602	0.15885	-0.429
Mof_O 	O 	0.9183	0.0806	0.73575	-0.625
Mof_C 	C 	0.7788	0.5747	0.7776	0.138
Mof_O 	O 	0.8734	0.0467	0.85973	-0.467
Mof_O 	O 	0.7473	0.0696	0.8718	-0.347
Mof_N 	N 	0.8268	0.4124	0.77959	-0.191
Mof_C 	C 	0.414	0.5883	0.8412	0.038
Mof_C 	C 	0.8208	0.04	0.8903	0.425
Mof_C 	C 	0.945	0.936	0.1392	0.333
Mof_C 	C 	0.9166	0.9614	0.0743	0.01
Mof_N 	N 	0.9021	0.4833	0.77473	-0.171
Mof_N 	N 	0.8983	0.6703	0.76933	-0.171
Mof_N 	N 	0.2974	0.5848	0.7681	-0.263
Mof_C 	C 	0.8973	0.8334	0.9764	0.195
Mof_C 	C 	0.365	0.5818	0.747	0.108
Mof_H 	H 	0.364	0.579	0.7076	0.007
Mof_C 	C 	0.851	0.1535	0.9931	0.07
Mof_H 	H 	0.8255	0.271	0.9786	0.031
Mof_N 	N 	0.8213	0.7341	0.77009	-0.18
Mof_C 	C 	0.8556	0.0032	0.9542	-0.16
Mof_C 	C 	0.8818	0.1356	0.051	-0.085
Mof_H 	H 	0.8795	0.2417	0.0752	0.086
Mof_C 	C 	0.9259	0.8033	0.0356	-0.141
Mof_H 	H 	0.9505	0.6848	0.0501	0.126
Mof_C 	C 	0.3312	0.5852	0.826	-0.006
Mof_H 	H 	0.2982	0.5834	0.853	0.019
Mof_N 	N 	0.4339	0.5833	0.7889	-0.139
Mof_C 	C 	0.6885	0.558	0.7806	-0.021
Mof_C 	C 	0.626	0.5892	0.73124	-0.01
Mof_H 	H 	0.6399	0.6102	0.6959	0.015
Mof_C 	C 	0.54281	0.5894	0.73388	-0.032
Mof_H 	H 	0.5003	0.6106	0.7004	0.025
Mof_C 	C 	0.5222	0.5585	0.78589	0.037
Mof_C 	C 	0.5848	0.5272	0.83524	-0.034
Mof_H 	H 	0.5708	0.5062	0.8705	0.032
Mof_C 	C 	0.6679	0.527	0.83261	-0.008
Mof_H 	H 	0.7104	0.5058	0.8661	0.027
Mof_C 	C 	0.6887	0.5862	0.78051	-0.021
Mof_C 	C 	0.6252	0.5904	0.73011	-0.005
Mof_H 	H 	0.6388	0.5895	0.6942	0.017
Mof_C 	C 	0.5417	0.596	0.73295	-0.027
Mof_H 	H 	0.4989	0.5989	0.6989	0.029
Mof_C 	C 	0.5216	0.5974	0.78621	0.033
Mof_C 	C 	0.5851	0.5931	0.83662	-0.036
Mof_H 	H 	0.5715	0.594	0.8725	0.035
Mof_C 	C 	0.6686	0.5875	0.83377	-0.012
Mof_H 	H 	0.7115	0.5847	0.8678	0.034
Mof_Zn	Zn	0.82552	0.41947	0.27701	1.202
Mof_Zn	Zn	0.99679	0.67395	0.24527	1.208
Mof_Br	Br	0.90822	0.87725	0.42764	-0.271
Mof_O 	O 	0.9545	0.4065	0.66775	-0.434
Mof_O 	O 	0.954	0.7398	0.65885	-0.43
Mof_O 	O 	0.9183	0.4194	0.23575	-0.626
Mof_C 	C 	0.7788	0.9253	0.2776	0.135
Mof_O 	O 	0.8734	0.4533	0.35973	-0.468
Mof_O 	O 	0.7473	0.4304	0.3718	-0.347
Mof_N 	N 	0.8268	0.0876	0.27959	-0.189
Mof_C 	C 	0.414	0.9117	0.3412	0.038
Mof_C 	C 	0.8208	0.46	0.3903	0.428
Mof_C 	C 	0.945	0.564	0.6392	0.337
Mof_C 	C 	0.9166	0.5386	0.5743	0.018
Mof_N 	N 	0.9021	0.0167	0.27473	-0.168
Mof_N 	N 	0.8983	0.8297	0.26933	-0.173
Mof_N 	N 	0.2974	0.9152	0.2681	-0.263
Mof_C 	C 	0.8973	0.6666	0.4764	0.201
Mof_C 	C 	0.365	0.9182	0.247	0.108
Mof_H 	H 	0.364	0.921	0.2076	0.006
Mof_C 	C 	0.851	0.3465	0.4931	0.078
Mof_H 	H 	0.8255	0.229	0.4786	0.029
Mof_N 	N 	0.8213	0.7659	0.27009	-0.179
Mof_C 	C 	0.8556	0.4968	0.4542	-0.166
Mof_C 	C 	0.8818	0.3644	0.551	-0.096
Mof_H 	H 	0.8795	0.2583	0.5752	0.09
Mof_C 	C 	0.9259	0.6967	0.5356	-0.145
Mof_H 	H 	0.9505	0.8152	0.5501	0.127
Mof_C 	C 	0.3312	0.9148	0.326	-0.006
Mof_H 	H 	0.2982	0.9166	0.353	0.019
Mof_N 	N 	0.4339	0.9167	0.2889	-0.139
Mof_C 	C 	0.6885	0.942	0.2806	-0.02
Mof_C 	C 	0.626	0.9108	0.23124	-0.01
Mof_H 	H 	0.6399	0.8898	0.1959	0.015
Mof_C 	C 	0.54281	0.9106	0.23388	-0.032
Mof_H 	H 	0.5003	0.8894	0.2004	0.025
Mof_C 	C 	0.5222	0.9415	0.28589	0.037
Mof_C 	C 	0.5848	0.9728	0.33524	-0.034
Mof_H 	H 	0.5708	0.9938	0.3705	0.032
Mof_C 	C 	0.6679	0.973	0.33261	-0.008
Mof_H 	H 	0.7104	0.9942	0.3661	0.026
Mof_C 	C 	0.6887	0.9138	0.28051	-0.021
Mof_C 	C 	0.6252	0.9096	0.23011	-0.006
Mof_H 	H 	0.6388	0.9105	0.1942	0.017
Mof_C 	C 	0.5417	0.904	0.23295	-0.027
Mof_H 	H 	0.4989	0.9011	0.1989	0.029
Mof_C 	C 	0.5216	0.9026	0.28621	0.032
Mof_C 	C 	0.5851	0.9069	0.33662	-0.036
Mof_H 	H 	0.5715	0.906	0.3725	0.035
Mof_C 	C 	0.6686	0.9125	0.33377	-0.013
Mof_H 	H 	0.7115	0.9153	0.3678	0.035
Mof_Zn	Zn	0.17448	0.91947	0.22299	1.202
Mof_Zn	Zn	0.00321	0.17395	0.25473	1.207
Mof_Br	Br	0.09178	0.37725	0.07236	-0.268
Mof_O 	O 	0.0455	0.9065	0.83225	-0.43
Mof_O 	O 	0.046	0.2398	0.84115	-0.429
Mof_O 	O 	0.0817	0.9194	0.26425	-0.625
Mof_C 	C 	0.2212	0.4253	0.2224	0.138
Mof_O 	O 	0.1266	0.9533	0.14027	-0.467
Mof_O 	O 	0.2527	0.9304	0.1282	-0.347
Mof_N 	N 	0.1732	0.5876	0.22041	-0.191
Mof_C 	C 	0.586	0.4117	0.1588	0.038
Mof_C 	C 	0.1792	0.96	0.1097	0.425
Mof_C 	C 	0.055	0.064	0.8608	0.333
Mof_C 	C 	0.0834	0.0386	0.9257	0.01
Mof_N 	N 	0.0979	0.5167	0.22527	-0.171
Mof_N 	N 	0.1017	0.3297	0.23067	-0.171
Mof_N 	N 	0.7026	0.4152	0.2319	-0.263
Mof_C 	C 	0.1027	0.1666	0.0236	0.195
Mof_C 	C 	0.635	0.4182	0.253	0.108
Mof_H 	H 	0.636	0.421	0.2924	0.007
Mof_C 	C 	0.149	0.8465	0.0069	0.07
Mof_H 	H 	0.1745	0.729	0.0214	0.031
Mof_N 	N 	0.1787	0.2659	0.22991	-0.18
Mof_C 	C 	0.1444	0.9968	0.0458	-0.16
Mof_C 	C 	0.1182	0.8644	0.949	-0.085
Mof_H 	H 	0.1205	0.7583	0.9248	0.086
Mof_C 	C 	0.0741	0.1967	0.9644	-0.141
Mof_H 	H 	0.0495	0.3152	0.9499	0.126
Mof_C 	C 	0.6688	0.4148	0.174	-0.006
Mof_H 	H 	0.7018	0.4166	0.147	0.019
Mof_N 	N 	0.5661	0.4167	0.2111	-0.139
Mof_C 	C 	0.3115	0.442	0.2194	-0.021
Mof_C 	C 	0.374	0.4108	0.26876	-0.01
Mof_H 	H 	0.3601	0.3898	0.3041	0.015
Mof_C 	C 	0.45719	0.4106	0.26612	-0.032
Mof_H 	H 	0.4997	0.3894	0.2996	0.025
Mof_C 	C 	0.4778	0.4415	0.21411	0.037
Mof_C 	C 	0.4152	0.4728	0.16476	-0.034
Mof_H 	H 	0.4292	0.4938	0.1295	0.032
Mof_C 	C 	0.3321	0.473	0.16739	-0.008
Mof_H 	H 	0.2896	0.4942	0.1339	0.027
Mof_C 	C 	0.3113	0.4138	0.21949	-0.021
Mof_C 	C 	0.3748	0.4096	0.26989	-0.005
Mof_H 	H 	0.3612	0.4105	0.3058	0.017
Mof_C 	C 	0.4583	0.404	0.26705	-0.027
Mof_H 	H 	0.5011	0.4011	0.3011	0.029
Mof_C 	C 	0.4784	0.4026	0.21379	0.033
Mof_C 	C 	0.4149	0.4069	0.16338	-0.036
Mof_H 	H 	0.4285	0.406	0.1275	0.035
Mof_C 	C 	0.3314	0.4125	0.16623	-0.012
Mof_H 	H 	0.2885	0.4153	0.1322	0.034
_end
