data_functionalizedCrystal
_audit_creation_method	'EQeq! by Chris Wilmer'
_symmetry_space_group_name_H-M	'P1'
_symmetry_Int_Tables_number	1
_symmetry_cell_setting	triclinic
loop_
_symmetry_equiv_pos_as_xyz
  x,y,z
_cell_length_a	34.627
_cell_length_b	15.0818
_cell_length_c	31.194
_cell_angle_alpha	90
_cell_angle_beta	102.792
_cell_angle_gamma	90
loop_
_atom_site_label
_atom_site_type_symbol
_atom_site_fract_x
_atom_site_fract_y
_atom_site_fract_z
_atom_site_charge
Mof_I 	I 	0.8648	0.6699	0.0455	-0.545
Mof_Zn	Zn	0.8223	0.6419	0.9696	0.68
Mof_N 	N 	0.8063	0.5013	0.9651	-0.289
Mof_I 	I 	0.757	0.7202	0.9387	0.034
Mof_N 	N 	0.8537	0.6573	0.9227	-0.294
Mof_C 	C 	0.8344	0.4529	0.9943	0.036
Mof_C 	C 	0.776	0.4667	0.9384	0.074
Mof_C 	C 	0.8416	0.7078	0.8866	0.047
Mof_C 	C 	0.8912	0.6204	0.9302	0.053
Mof_H 	H 	0.8563	0.4808	0.0133	-0.006
Mof_C 	C 	0.8291	0.363	0.9945	-0.1
Mof_C 	C 	0.7699	0.3765	0.9389	-0.123
Mof_H 	H 	0.7581	0.5034	0.9185	-0.025
Mof_C 	C 	0.8667	0.7263	0.8571	-0.091
Mof_H 	H 	0.8156	0.7319	0.8806	-0.017
Mof_C 	C 	0.9172	0.6376	0.9037	-0.097
Mof_H 	H 	0.8992	0.5818	0.9545	-0.01
Mof_H 	H 	0.8481	0.3269	0.0134	0.077
Mof_C 	C 	0.7961	0.3235	0.9672	0.052
Mof_H 	H 	0.7475	0.351	0.9197	0.079
Mof_H 	H 	0.8575	0.7615	0.8316	0.073
Mof_C 	C 	0.9044	0.6923	0.866	0.048
Mof_H 	H 	0.9432	0.6135	0.9104	0.078
Mof_C 	C 	0.7899	0.2235	0.9686	0.096
Mof_C 	C 	0.9322	0.706	0.8358	0.117
Mof_N 	N 	0.7601	0.1901	0.9402	-0.141
Mof_N 	N 	0.816	0.1806	0.0016	-0.132
Mof_N 	N 	0.9235	0.7752	0.8093	-0.144
Mof_N 	N 	0.959	0.6464	0.8377	-0.143
Mof_C 	C 	0.7559	0.0997	0.947	0.07
Mof_C 	C 	0.8095	0.0951	0.0036	0.096
Mof_C 	C 	0.9481	0.7836	0.7822	0.083
Mof_C 	C 	0.9796	0.6582	0.808	0.085
Mof_N 	N 	0.7792	0.0507	0.9768	-0.142
Mof_C 	C 	0.7258	0.056	0.9153	0.055
Mof_C 	C 	0.8343	0.0466	0.0385	0.053
Mof_C 	C 	0.9443	0.8641	0.7537	0.044
Mof_N 	N 	0.9761	0.7266	0.7786	-0.151
Mof_C 	C 	0.0128	0.5951	0.8051	0.056
Mof_C 	C 	0.6997	0.1008	0.881	-0.125
Mof_C 	C 	0.7197	0.9654	0.9179	-0.129
Mof_C 	C 	0.8284	0.9555	0.0447	-0.11
Mof_C 	C 	0.8648	0.0845	0.0692	-0.116
Mof_C 	C 	0.9139	0.9223	0.7504	-0.113
Mof_C 	C 	0.9725	0.8839	0.7302	-0.108
Mof_C 	C 	0.0308	0.5876	0.7694	-0.126
Mof_C 	C 	0.0249	0.537	0.8393	-0.117
Mof_C 	C 	0.6706	0.0478	0.8526	0.105
Mof_H 	H 	0.7014	0.163	0.8769	0.091
Mof_H 	H 	0.7365	0.9322	0.9404	0.084
Mof_C 	C 	0.691	0.9236	0.8897	0.065
Mof_C 	C 	0.8543	0.9096	0.0803	0.051
Mof_H 	H 	0.8075	0.9247	0.0257	0.064
Mof_H 	H 	0.8674	0.1472	0.0692	0.095
Mof_C 	C 	0.8909	0.0378	0.099	0.077
Mof_C 	C 	0.9114	0.9918	0.7203	0.055
Mof_H 	H 	0.8949	0.916	0.768	0.074
Mof_C 	C 	0.969	0.9523	0.7012	0.058
Mof_H 	H 	0.9955	0.8479	0.7344	0.068
Mof_C 	C 	0.061	0.5348	0.7713	0.081
Mof_H 	H 	0.0209	0.6211	0.7435	0.08
Mof_C 	C 	0.0569	0.48	0.8391	0.074
Mof_H 	H 	0.0116	0.5349	0.8629	0.083
Mof_N 	N 	0.6658	0.9657	0.8557	-0.279
Mof_H 	H 	0.6532	0.0775	0.8292	-0.011
Mof_H 	H 	0.6878	0.8617	0.8934	0.006
Mof_N 	N 	0.8847	0.951	0.1062	-0.27
Mof_H 	H 	0.8497	0.8488	0.0853	-0.002
Mof_H 	H 	0.914	0.0662	0.1153	-0.005
Mof_N 	N 	0.9376	0.0061	0.6965	-0.282
Mof_H 	H 	0.8894	0.0309	0.7168	-0.011
Mof_H 	H 	0.9886	0.9618	0.6846	-0.001
Mof_H 	H 	0.074	0.5352	0.7476	-0.007
Mof_N 	N 	0.0748	0.479	0.8059	-0.266
Mof_H 	H 	0.0659	0.4415	0.8633	-0.015
Mof_Zn	Zn	0.6245	0.9025	0.8068	0.558
Mof_Zn	Zn	0.92497	0.88302	0.15266	1.168
Mof_Zn	Zn	0.9309	0.0982	0.6474	0.666
Mof_N 	N 	0.8868	0.0371	0.6011	-0.302
Mof_I 	I 	0.89713	0.2306	0.6736	0.302
Mof_I 	I 	0.99219	0.1125	0.617	-0.728
Mof_I 	I 	0.1472	0.4192	0.738	-0.17
Mof_I 	I 	0.1084	0.2604	0.8408	-0.094
Mof_C 	C 	0.8921	0.9537	0.5935	0.094
Mof_C 	C 	0.8548	0.0741	0.5768	0.084
Mof_C 	C 	0.869	0.9038	0.561	-0.138
Mof_H 	H 	0.914	0.9249	0.612	-0.007
Mof_C 	C 	0.8293	0.0309	0.5442	-0.144
Mof_H 	H 	0.8493	0.1342	0.5824	-0.005
Mof_H 	H 	0.8748	0.8437	0.5559	0.104
Mof_C 	C 	0.8357	0.9481	0.5356	0.069
Mof_H 	H 	0.8068	0.0608	0.5276	0.107
Mof_C 	C 	0.8083	0.8947	0.4996	0.098
Mof_N 	N 	0.8181	0.8082	0.4966	-0.133
Mof_N 	N 	0.7795	0.9378	0.4755	-0.142
Mof_C 	C 	0.7911	0.7624	0.467	0.105
Mof_C 	C 	0.7565	0.8888	0.4425	0.096
Mof_N 	N 	0.7619	0.8028	0.4393	-0.127
Mof_C 	C 	0.7952	0.6689	0.4657	0.083
Mof_C 	C 	0.7239	0.9395	0.4134	0.058
Mof_C 	C 	0.7685	0.6206	0.4341	-0.147
Mof_C 	C 	0.823	0.6256	0.4951	-0.147
Mof_C 	C 	0.6963	0.8928	0.3815	-0.11
Mof_C 	C 	0.7197	0.0258	0.4178	-0.128
Mof_H 	H 	0.7476	0.6457	0.4127	0.098
Mof_C 	C 	0.7777	0.5233	0.439	0.126
Mof_C 	C 	0.8267	0.536	0.494	0.088
Mof_H 	H 	0.8406	0.6585	0.5172	0.093
Mof_C 	C 	0.6679	0.9367	0.3534	0.047
Mof_H 	H 	0.6978	0.8301	0.38	0.102
Mof_C 	C 	0.6871	0.0706	0.389	0.069
Mof_H 	H 	0.7378	0.058	0.4395	0.106
Mof_N 	N 	0.8035	0.4826	0.4651	-0.354
Mof_H 	H 	0.7606	0.4867	0.4183	-0.063
Mof_H 	H 	0.8472	0.5097	0.5154	-0.044
Mof_N 	N 	0.6623	0.0273	0.3581	-0.295
Mof_H 	H 	0.6514	0.9056	0.3299	0.009
Mof_H 	H 	0.6835	0.1324	0.3926	-0.024
Mof_Zn	Zn	0.8048	0.3494	0.4576	0.903
Mof_Zn	Zn	0.6185	0.0948	0.3158	0.675
Mof_I 	I 	0.6068	0.2395	0.35224	-0.736
Mof_N 	N 	0.5735	0.0121	0.3082	-0.283
Mof_I 	I 	0.63992	0.0871	0.24424	0.18
Mof_C 	C 	0.5531	0.007	0.3448	0.033
Mof_C 	C 	0.5612	0.9592	0.2745	0.049
Mof_H 	H 	0.5603	0.0486	0.3681	0
Mof_C 	C 	0.5256	0.949	0.3469	-0.105
Mof_C 	C 	0.5286	0.8982	0.2752	-0.104
Mof_H 	H 	0.5733	0.9607	0.25	-0.01
Mof_C 	C 	0.5113	0.8928	0.3093	0.024
Mof_H 	H 	0.5154	0.9431	0.3726	0.065
Mof_H 	H 	0.5194	0.861	0.2505	0.07
Mof_C 	C 	0.4799	0.8332	0.3078	0.08
Mof_N 	N 	0.475	0.766	0.2784	-0.152
Mof_N 	N 	0.4573	0.8464	0.3373	-0.13
Mof_C 	C 	0.4457	0.7089	0.282	0.081
Mof_C 	C 	0.4256	0.7892	0.3361	0.079
Mof_C 	C 	0.4425	0.6294	0.254	0.058
Mof_N 	N 	0.4209	0.7163	0.3089	-0.126
Mof_C 	C 	0.4006	0.8003	0.3657	0.092
Mof_C 	C 	0.4116	0.5712	0.2494	-0.129
Mof_C 	C 	0.4712	0.6106	0.2313	-0.119
Mof_C 	C 	0.3664	0.7559	0.3592	-0.166
Mof_C 	C 	0.4105	0.854	0.402	-0.133
Mof_C 	C 	0.4074	0.4991	0.222	0.091
Mof_H 	H 	0.3921	0.5812	0.266	0.085
Mof_C 	C 	0.4656	0.5363	0.2046	0.06
Mof_H 	H 	0.4939	0.6472	0.2337	0.065
Mof_H 	H 	0.3597	0.7133	0.3364	0.1
Mof_C 	C 	0.3413	0.773	0.3861	0.125
Mof_H 	H 	0.4359	0.88	0.4105	0.082
Mof_C 	C 	0.3812	0.867	0.4258	0.057
Mof_N 	N 	0.4341	0.4798	0.2003	-0.276
Mof_H 	H 	0.3845	0.4628	0.2188	-0.019
Mof_H 	H 	0.485	0.5236	0.1882	-0.007
Mof_N 	N 	0.3441	0.832	0.4172	-0.354
Mof_H 	H 	0.3183	0.7368	0.3816	-0.025
Mof_H 	H 	0.388	0.9049	0.4506	-0.059
Mof_I 	I 	0.39237	0.25654	0.18078	-0.382
Mof_I 	I 	0.48488	0.36742	0.11887	-0.35
Mof_I 	I 	0.23971	0.784	0.42149	0.452
Mof_I 	I 	0.3411	0.7972	0.5313	-0.766
Mof_Zn	Zn	0.8081	0.6379	0.9592	0.681
Mof_I 	I 	0.8505	0.6873	0.0342	0.127
Mof_I 	I 	0.7452	0.7134	0.9268	-0.452
Mof_Zn	Zn	0.6239	0.897	0.8134	0.55
Mof_I 	I 	0.6465	0.9133	0.7384	-0.148
Mof_I 	I 	0.6113	0.7542	0.8498	-0.237
Mof_I 	I 	0.3817	0.726	0.684	-0.727
Mof_I 	I 	0.4784	0.6427	0.6197	0.318
Mof_Zn	Zn	0.1267	0.5952	0.3045	0.647
Mof_I 	I 	0.1161	0.7283	0.3366	0.283
Mof_I 	I 	0.1487	0.574	0.2331	-0.587
Mof_Zn	Zn	0.8274	0.3504	0.4733	0.883
Mof_I 	I 	0.8746	0.3211	0.5447	0.18
Mof_I 	I 	0.7661	0.2621	0.4495	-1.03
Mof_Zn	Zn	0.4208	0.6182	0.6511	0.649
Mof_I 	I 	0.3648	0.1699	0.0455	-0.546
Mof_Zn	Zn	0.3223	0.1419	0.9696	0.679
Mof_N 	N 	0.3063	0.0013	0.9651	-0.282
Mof_I 	I 	0.257	0.2202	0.9387	0.034
Mof_N 	N 	0.3537	0.1573	0.9227	-0.294
Mof_C 	C 	0.3344	0.9529	0.9943	0.029
Mof_C 	C 	0.276	0.9667	0.9384	0.058
Mof_C 	C 	0.3416	0.2078	0.8866	0.047
Mof_C 	C 	0.3912	0.1204	0.9302	0.053
Mof_H 	H 	0.3563	0.9808	0.0133	-0.005
Mof_C 	C 	0.3291	0.863	0.9945	-0.095
Mof_C 	C 	0.2699	0.8765	0.9389	-0.114
Mof_H 	H 	0.2581	0.0034	0.9185	-0.017
Mof_C 	C 	0.3667	0.2263	0.8571	-0.091
Mof_H 	H 	0.3156	0.2319	0.8806	-0.017
Mof_C 	C 	0.4172	0.1376	0.9037	-0.097
Mof_H 	H 	0.3992	0.0818	0.9545	-0.01
Mof_H 	H 	0.3481	0.8269	0.0134	0.075
Mof_C 	C 	0.2961	0.8235	0.9672	0.047
Mof_H 	H 	0.2475	0.851	0.9197	0.075
Mof_H 	H 	0.3575	0.2615	0.8316	0.074
Mof_C 	C 	0.4044	0.1923	0.866	0.049
Mof_H 	H 	0.4432	0.1135	0.9104	0.078
Mof_C 	C 	0.2899	0.7235	0.9686	0.097
Mof_C 	C 	0.4322	0.206	0.8358	0.117
Mof_N 	N 	0.2601	0.6901	0.9402	-0.142
Mof_N 	N 	0.316	0.6806	0.0016	-0.133
Mof_N 	N 	0.4235	0.2752	0.8093	-0.143
Mof_N 	N 	0.459	0.1464	0.8377	-0.143
Mof_C 	C 	0.2559	0.5997	0.947	0.072
Mof_C 	C 	0.3095	0.5951	0.0036	0.097
Mof_C 	C 	0.4481	0.2836	0.7822	0.081
Mof_C 	C 	0.4796	0.1582	0.808	0.086
Mof_N 	N 	0.2792	0.5507	0.9768	-0.144
Mof_C 	C 	0.2258	0.556	0.9153	0.046
Mof_C 	C 	0.3343	0.5466	0.0385	0.045
Mof_C 	C 	0.4443	0.3641	0.7537	0.05
Mof_N 	N 	0.4761	0.2266	0.7786	-0.15
Mof_C 	C 	0.5128	0.0951	0.8051	0.054
Mof_C 	C 	0.1997	0.6008	0.881	-0.12
Mof_C 	C 	0.2197	0.4654	0.9179	-0.119
Mof_C 	C 	0.3284	0.4555	0.0447	-0.101
Mof_C 	C 	0.3648	0.5845	0.0692	-0.11
Mof_C 	C 	0.4139	0.4223	0.7504	-0.122
Mof_C 	C 	0.4725	0.3839	0.7302	-0.114
Mof_C 	C 	0.5308	0.0876	0.7694	-0.126
Mof_C 	C 	0.5249	0.037	0.8393	-0.11
Mof_C 	C 	0.1706	0.5478	0.8526	0.097
Mof_H 	H 	0.2014	0.663	0.8769	0.089
Mof_H 	H 	0.2365	0.4322	0.9404	0.082
Mof_C 	C 	0.191	0.4236	0.8897	0.061
Mof_C 	C 	0.3543	0.4096	0.0803	0.048
Mof_H 	H 	0.3075	0.4247	0.0257	0.062
Mof_H 	H 	0.3674	0.6472	0.0692	0.093
Mof_C 	C 	0.3909	0.5378	0.099	0.069
Mof_C 	C 	0.4114	0.4918	0.7203	0.071
Mof_H 	H 	0.3949	0.416	0.768	0.078
Mof_C 	C 	0.469	0.4523	0.7012	0.066
Mof_H 	H 	0.4955	0.3479	0.7344	0.07
Mof_C 	C 	0.561	0.0348	0.7713	0.084
Mof_H 	H 	0.5209	0.1211	0.7435	0.081
Mof_C 	C 	0.5569	0.98	0.8391	0.067
Mof_H 	H 	0.5116	0.0349	0.8629	0.081
Mof_N 	N 	0.1658	0.4657	0.8557	-0.275
Mof_H 	H 	0.1532	0.5775	0.8292	-0.01
Mof_H 	H 	0.1878	0.3617	0.8934	0.008
Mof_N 	N 	0.3847	0.451	0.1062	-0.267
Mof_H 	H 	0.3497	0.3488	0.0853	-0.001
Mof_H 	H 	0.414	0.5662	0.1153	-0.004
Mof_N 	N 	0.4376	0.5061	0.6965	-0.289
Mof_H 	H 	0.3894	0.5309	0.7168	-0.019
Mof_H 	H 	0.4886	0.4618	0.6846	-0.002
Mof_H 	H 	0.574	0.0352	0.7476	-0.006
Mof_N 	N 	0.5748	0.979	0.8059	-0.268
Mof_H 	H 	0.5659	0.9415	0.8633	-0.014
Mof_Zn	Zn	0.1245	0.4025	0.8068	0.558
Mof_Zn	Zn	0.42497	0.38302	0.15266	1.168
Mof_Zn	Zn	0.4309	0.5982	0.6474	0.666
Mof_N 	N 	0.3868	0.5371	0.6011	-0.307
Mof_I 	I 	0.39713	0.7306	0.6736	0.3
Mof_I 	I 	0.49219	0.6125	0.617	-0.727
Mof_I 	I 	0.6472	0.9192	0.738	-0.171
Mof_I 	I 	0.6084	0.7604	0.8408	-0.094
Mof_C 	C 	0.3921	0.4537	0.5935	0.103
Mof_C 	C 	0.3548	0.5741	0.5768	0.089
Mof_C 	C 	0.369	0.4038	0.561	-0.146
Mof_H 	H 	0.414	0.4249	0.612	-0.009
Mof_C 	C 	0.3293	0.5309	0.5442	-0.156
Mof_H 	H 	0.3493	0.6342	0.5824	-0.007
Mof_H 	H 	0.3748	0.3437	0.5559	0.107
Mof_C 	C 	0.3357	0.4481	0.5356	0.08
Mof_H 	H 	0.3068	0.5608	0.5276	0.11
Mof_C 	C 	0.3083	0.3947	0.4996	0.096
Mof_N 	N 	0.3181	0.3082	0.4966	-0.132
Mof_N 	N 	0.2795	0.4378	0.4755	-0.14
Mof_C 	C 	0.2911	0.2624	0.467	0.104
Mof_C 	C 	0.2565	0.3888	0.4425	0.094
Mof_N 	N 	0.2619	0.3028	0.4393	-0.126
Mof_C 	C 	0.2952	0.1689	0.4657	0.088
Mof_C 	C 	0.2239	0.4395	0.4134	0.068
Mof_C 	C 	0.2685	0.1206	0.4341	-0.153
Mof_C 	C 	0.323	0.1256	0.4951	-0.152
Mof_C 	C 	0.1963	0.3928	0.3815	-0.116
Mof_C 	C 	0.2197	0.5258	0.4178	-0.139
Mof_H 	H 	0.2476	0.1457	0.4127	0.101
Mof_C 	C 	0.2777	0.0233	0.439	0.141
Mof_C 	C 	0.3267	0.036	0.494	0.096
Mof_H 	H 	0.3406	0.1585	0.5172	0.095
Mof_C 	C 	0.1679	0.4367	0.3534	0.055
Mof_H 	H 	0.1978	0.3301	0.38	0.104
Mof_C 	C 	0.1871	0.5706	0.389	0.073
Mof_H 	H 	0.2378	0.558	0.4395	0.109
Mof_N 	N 	0.3035	0.9826	0.4651	-0.361
Mof_H 	H 	0.2606	0.9867	0.4183	-0.071
Mof_H 	H 	0.3472	0.0097	0.5154	-0.045
Mof_N 	N 	0.1623	0.5273	0.3581	-0.298
Mof_H 	H 	0.1514	0.4056	0.3299	0.007
Mof_H 	H 	0.1835	0.6324	0.3926	-0.025
Mof_Zn	Zn	0.3048	0.8494	0.4576	0.903
Mof_Zn	Zn	0.1185	0.5948	0.3158	0.675
Mof_I 	I 	0.1068	0.7395	0.35224	-0.736
Mof_N 	N 	0.0735	0.5121	0.3082	-0.284
Mof_I 	I 	0.13992	0.5871	0.24424	0.179
Mof_C 	C 	0.0531	0.507	0.3448	0.024
Mof_C 	C 	0.0612	0.4592	0.2745	0.052
Mof_H 	H 	0.0603	0.5486	0.3681	0.002
Mof_C 	C 	0.0256	0.449	0.3469	-0.096
Mof_C 	C 	0.0286	0.3982	0.2752	-0.103
Mof_H 	H 	0.0733	0.4607	0.25	-0.01
Mof_C 	C 	0.0113	0.3928	0.3093	0.022
Mof_H 	H 	0.0154	0.4431	0.3726	0.063
Mof_H 	H 	0.0194	0.361	0.2505	0.07
Mof_C 	C 	0.9799	0.3332	0.3078	0.081
Mof_N 	N 	0.975	0.266	0.2784	-0.152
Mof_N 	N 	0.9573	0.3464	0.3373	-0.13
Mof_C 	C 	0.9457	0.2089	0.282	0.082
Mof_C 	C 	0.9256	0.2892	0.3361	0.079
Mof_C 	C 	0.9425	0.1294	0.254	0.055
Mof_N 	N 	0.9209	0.2163	0.3089	-0.126
Mof_C 	C 	0.9006	0.3003	0.3657	0.093
Mof_C 	C 	0.9116	0.0712	0.2494	-0.12
Mof_C 	C 	0.9712	0.1106	0.2313	-0.119
Mof_C 	C 	0.8664	0.2559	0.3592	-0.166
Mof_C 	C 	0.9105	0.354	0.402	-0.132
Mof_C 	C 	0.9074	0.9991	0.222	0.082
Mof_H 	H 	0.8921	0.0812	0.266	0.083
Mof_C 	C 	0.9656	0.0363	0.2046	0.063
Mof_H 	H 	0.9939	0.1472	0.2337	0.066
Mof_H 	H 	0.8597	0.2133	0.3364	0.1
Mof_C 	C 	0.8413	0.273	0.3861	0.125
Mof_H 	H 	0.9359	0.38	0.4105	0.083
Mof_C 	C 	0.8812	0.367	0.4258	0.057
Mof_N 	N 	0.9341	0.9798	0.2003	-0.277
Mof_H 	H 	0.8845	0.9628	0.2188	-0.017
Mof_H 	H 	0.985	0.0236	0.1882	-0.007
Mof_N 	N 	0.8441	0.332	0.4172	-0.354
Mof_H 	H 	0.8183	0.2368	0.3816	-0.025
Mof_H 	H 	0.888	0.4049	0.4506	-0.058
Mof_I 	I 	0.89237	0.75654	0.18078	-0.383
Mof_I 	I 	0.98488	0.86742	0.11887	-0.352
Mof_I 	I 	0.73971	0.284	0.42149	0.452
Mof_I 	I 	0.8411	0.2972	0.5313	-0.767
Mof_Zn	Zn	0.3081	0.1379	0.9592	0.681
Mof_I 	I 	0.3505	0.1873	0.0342	0.129
Mof_I 	I 	0.2452	0.2134	0.9268	-0.451
Mof_Zn	Zn	0.1239	0.397	0.8134	0.55
Mof_I 	I 	0.1465	0.4133	0.7384	-0.147
Mof_I 	I 	0.1113	0.2542	0.8498	-0.237
Mof_I 	I 	0.8817	0.226	0.684	-0.728
Mof_I 	I 	0.9784	0.1427	0.6197	0.321
Mof_Zn	Zn	0.6267	0.0952	0.3045	0.647
Mof_I 	I 	0.6161	0.2283	0.3366	0.284
Mof_I 	I 	0.6487	0.074	0.2331	-0.586
Mof_Zn	Zn	0.3274	0.8504	0.4733	0.883
Mof_I 	I 	0.3746	0.8211	0.5447	0.178
Mof_I 	I 	0.2661	0.7621	0.4495	-1.03
Mof_Zn	Zn	0.9208	0.1182	0.6511	0.649
Mof_I 	I 	0.1352	0.6699	0.9545	-0.546
Mof_Zn	Zn	0.1777	0.6419	0.0304	0.679
Mof_N 	N 	0.1937	0.5013	0.0349	-0.289
Mof_I 	I 	0.243	0.7202	0.0613	0.034
Mof_N 	N 	0.1463	0.6573	0.0773	-0.294
Mof_C 	C 	0.1656	0.4529	0.0057	0.036
Mof_C 	C 	0.224	0.4667	0.0616	0.074
Mof_C 	C 	0.1584	0.7078	0.1134	0.047
Mof_C 	C 	0.1088	0.6204	0.0698	0.053
Mof_H 	H 	0.1437	0.4808	0.9867	-0.006
Mof_C 	C 	0.1709	0.363	0.0055	-0.1
Mof_C 	C 	0.2301	0.3765	0.0611	-0.123
Mof_H 	H 	0.2419	0.5034	0.0815	-0.025
Mof_C 	C 	0.1333	0.7263	0.1429	-0.091
Mof_H 	H 	0.1844	0.7319	0.1194	-0.017
Mof_C 	C 	0.0828	0.6376	0.0963	-0.097
Mof_H 	H 	0.1008	0.5818	0.0455	-0.01
Mof_H 	H 	0.1519	0.3269	0.9866	0.077
Mof_C 	C 	0.2039	0.3235	0.0328	0.052
Mof_H 	H 	0.2525	0.351	0.0803	0.079
Mof_H 	H 	0.1425	0.7615	0.1684	0.073
Mof_C 	C 	0.0956	0.6923	0.134	0.048
Mof_H 	H 	0.0568	0.6135	0.0896	0.078
Mof_C 	C 	0.2101	0.2235	0.0314	0.096
Mof_C 	C 	0.0678	0.706	0.1642	0.117
Mof_N 	N 	0.2399	0.1901	0.0598	-0.141
Mof_N 	N 	0.184	0.1806	0.9984	-0.132
Mof_N 	N 	0.0765	0.7752	0.1907	-0.144
Mof_N 	N 	0.041	0.6464	0.1623	-0.143
Mof_C 	C 	0.2441	0.0997	0.053	0.07
Mof_C 	C 	0.1905	0.0951	0.9964	0.096
Mof_C 	C 	0.0519	0.7836	0.2178	0.083
Mof_C 	C 	0.0204	0.6582	0.192	0.085
Mof_N 	N 	0.2208	0.0507	0.0232	-0.142
Mof_C 	C 	0.2742	0.056	0.0847	0.055
Mof_C 	C 	0.1657	0.0466	0.9615	0.053
Mof_C 	C 	0.0557	0.8641	0.2463	0.044
Mof_N 	N 	0.0239	0.7266	0.2214	-0.151
Mof_C 	C 	0.9872	0.5951	0.1949	0.056
Mof_C 	C 	0.3003	0.1008	0.119	-0.125
Mof_C 	C 	0.2803	0.9654	0.0821	-0.129
Mof_C 	C 	0.1716	0.9555	0.9553	-0.11
Mof_C 	C 	0.1352	0.0845	0.9308	-0.116
Mof_C 	C 	0.0861	0.9223	0.2496	-0.113
Mof_C 	C 	0.0275	0.8839	0.2698	-0.108
Mof_C 	C 	0.9692	0.5876	0.2306	-0.126
Mof_C 	C 	0.9751	0.537	0.1607	-0.117
Mof_C 	C 	0.3294	0.0478	0.1474	0.105
Mof_H 	H 	0.2986	0.163	0.1231	0.091
Mof_H 	H 	0.2635	0.9322	0.0596	0.084
Mof_C 	C 	0.309	0.9236	0.1103	0.065
Mof_C 	C 	0.1457	0.9096	0.9197	0.051
Mof_H 	H 	0.1925	0.9247	0.9743	0.064
Mof_H 	H 	0.1326	0.1472	0.9308	0.095
Mof_C 	C 	0.1091	0.0378	0.901	0.077
Mof_C 	C 	0.0886	0.9918	0.2797	0.055
Mof_H 	H 	0.1051	0.916	0.232	0.074
Mof_C 	C 	0.031	0.9523	0.2988	0.058
Mof_H 	H 	0.0045	0.8479	0.2656	0.068
Mof_C 	C 	0.939	0.5348	0.2287	0.081
Mof_H 	H 	0.9791	0.6211	0.2565	0.08
Mof_C 	C 	0.9431	0.48	0.1609	0.074
Mof_H 	H 	0.9884	0.5349	0.1371	0.083
Mof_N 	N 	0.3342	0.9657	0.1443	-0.279
Mof_H 	H 	0.3468	0.0775	0.1708	-0.011
Mof_H 	H 	0.3122	0.8617	0.1066	0.006
Mof_N 	N 	0.1153	0.951	0.8938	-0.27
Mof_H 	H 	0.1503	0.8488	0.9147	-0.002
Mof_H 	H 	0.086	0.0662	0.8847	-0.005
Mof_N 	N 	0.0624	0.0061	0.3035	-0.282
Mof_H 	H 	0.1106	0.0309	0.2832	-0.011
Mof_H 	H 	0.0114	0.9618	0.3154	-0.001
Mof_H 	H 	0.926	0.5352	0.2524	-0.007
Mof_N 	N 	0.9252	0.479	0.1941	-0.266
Mof_H 	H 	0.9341	0.4415	0.1367	-0.015
Mof_Zn	Zn	0.3755	0.9025	0.1932	0.558
Mof_Zn	Zn	0.07503	0.88302	0.84734	1.168
Mof_Zn	Zn	0.0691	0.0982	0.3526	0.666
Mof_N 	N 	0.1132	0.0371	0.3989	-0.302
Mof_I 	I 	0.10287	0.2306	0.3264	0.302
Mof_I 	I 	0.00781	0.1125	0.383	-0.728
Mof_I 	I 	0.8528	0.4192	0.262	-0.17
Mof_I 	I 	0.8916	0.2604	0.1592	-0.094
Mof_C 	C 	0.1079	0.9537	0.4065	0.094
Mof_C 	C 	0.1452	0.0741	0.4232	0.084
Mof_C 	C 	0.131	0.9038	0.439	-0.138
Mof_H 	H 	0.086	0.9249	0.388	-0.007
Mof_C 	C 	0.1707	0.0309	0.4558	-0.144
Mof_H 	H 	0.1507	0.1342	0.4176	-0.005
Mof_H 	H 	0.1252	0.8437	0.4441	0.104
Mof_C 	C 	0.1643	0.9481	0.4644	0.069
Mof_H 	H 	0.1932	0.0608	0.4724	0.107
Mof_C 	C 	0.1917	0.8947	0.5004	0.098
Mof_N 	N 	0.1819	0.8082	0.5034	-0.133
Mof_N 	N 	0.2205	0.9378	0.5245	-0.142
Mof_C 	C 	0.2089	0.7624	0.533	0.105
Mof_C 	C 	0.2435	0.8888	0.5575	0.096
Mof_N 	N 	0.2381	0.8028	0.5607	-0.127
Mof_C 	C 	0.2048	0.6689	0.5343	0.083
Mof_C 	C 	0.2761	0.9395	0.5866	0.058
Mof_C 	C 	0.2315	0.6206	0.5659	-0.147
Mof_C 	C 	0.177	0.6256	0.5049	-0.147
Mof_C 	C 	0.3037	0.8928	0.6185	-0.11
Mof_C 	C 	0.2803	0.0258	0.5822	-0.128
Mof_H 	H 	0.2524	0.6457	0.5873	0.098
Mof_C 	C 	0.2223	0.5233	0.561	0.126
Mof_C 	C 	0.1733	0.536	0.506	0.088
Mof_H 	H 	0.1594	0.6585	0.4828	0.093
Mof_C 	C 	0.3321	0.9367	0.6466	0.047
Mof_H 	H 	0.3022	0.8301	0.62	0.102
Mof_C 	C 	0.3129	0.0706	0.611	0.069
Mof_H 	H 	0.2622	0.058	0.5605	0.106
Mof_N 	N 	0.1965	0.4826	0.5349	-0.354
Mof_H 	H 	0.2394	0.4867	0.5817	-0.063
Mof_H 	H 	0.1528	0.5097	0.4846	-0.044
Mof_N 	N 	0.3377	0.0273	0.6419	-0.295
Mof_H 	H 	0.3486	0.9056	0.6701	0.009
Mof_H 	H 	0.3165	0.1324	0.6074	-0.024
Mof_Zn	Zn	0.1952	0.3494	0.5424	0.903
Mof_Zn	Zn	0.3815	0.0948	0.6842	0.675
Mof_I 	I 	0.3932	0.2395	0.64776	-0.736
Mof_N 	N 	0.4265	0.0121	0.6918	-0.283
Mof_I 	I 	0.36008	0.0871	0.75576	0.18
Mof_C 	C 	0.4469	0.007	0.6552	0.033
Mof_C 	C 	0.4388	0.9592	0.7255	0.049
Mof_H 	H 	0.4397	0.0486	0.6319	0
Mof_C 	C 	0.4744	0.949	0.6531	-0.105
Mof_C 	C 	0.4714	0.8982	0.7248	-0.104
Mof_H 	H 	0.4267	0.9607	0.75	-0.01
Mof_C 	C 	0.4887	0.8928	0.6907	0.024
Mof_H 	H 	0.4846	0.9431	0.6274	0.065
Mof_H 	H 	0.4806	0.861	0.7495	0.07
Mof_C 	C 	0.5201	0.8332	0.6922	0.08
Mof_N 	N 	0.525	0.766	0.7216	-0.152
Mof_N 	N 	0.5427	0.8464	0.6627	-0.13
Mof_C 	C 	0.5543	0.7089	0.718	0.081
Mof_C 	C 	0.5744	0.7892	0.6639	0.079
Mof_C 	C 	0.5575	0.6294	0.746	0.058
Mof_N 	N 	0.5791	0.7163	0.6911	-0.126
Mof_C 	C 	0.5994	0.8003	0.6343	0.092
Mof_C 	C 	0.5884	0.5712	0.7506	-0.129
Mof_C 	C 	0.5288	0.6106	0.7687	-0.119
Mof_C 	C 	0.6336	0.7559	0.6408	-0.166
Mof_C 	C 	0.5895	0.854	0.598	-0.133
Mof_C 	C 	0.5926	0.4991	0.778	0.091
Mof_H 	H 	0.6079	0.5812	0.734	0.085
Mof_C 	C 	0.5344	0.5363	0.7954	0.06
Mof_H 	H 	0.5061	0.6472	0.7663	0.065
Mof_H 	H 	0.6403	0.7133	0.6636	0.1
Mof_C 	C 	0.6587	0.773	0.6139	0.125
Mof_H 	H 	0.5641	0.88	0.5895	0.082
Mof_C 	C 	0.6188	0.867	0.5742	0.057
Mof_N 	N 	0.5659	0.4798	0.7997	-0.276
Mof_H 	H 	0.6155	0.4628	0.7812	-0.019
Mof_H 	H 	0.515	0.5236	0.8118	-0.007
Mof_N 	N 	0.6559	0.832	0.5828	-0.354
Mof_H 	H 	0.6817	0.7368	0.6184	-0.025
Mof_H 	H 	0.612	0.9049	0.5494	-0.059
Mof_I 	I 	0.60763	0.25654	0.81922	-0.382
Mof_I 	I 	0.51512	0.36742	0.88113	-0.35
Mof_I 	I 	0.76029	0.784	0.57851	0.452
Mof_I 	I 	0.6589	0.7972	0.4687	-0.766
Mof_Zn	Zn	0.1919	0.6379	0.0408	0.681
Mof_I 	I 	0.1495	0.6873	0.9658	0.127
Mof_I 	I 	0.2548	0.7134	0.0732	-0.452
Mof_Zn	Zn	0.3761	0.897	0.1866	0.55
Mof_I 	I 	0.3535	0.9133	0.2616	-0.148
Mof_I 	I 	0.3887	0.7542	0.1502	-0.237
Mof_I 	I 	0.6183	0.726	0.316	-0.727
Mof_I 	I 	0.5216	0.6427	0.3803	0.318
Mof_Zn	Zn	0.8733	0.5952	0.6955	0.647
Mof_I 	I 	0.8839	0.7283	0.6634	0.283
Mof_I 	I 	0.8513	0.574	0.7669	-0.587
Mof_Zn	Zn	0.1726	0.3504	0.5267	0.883
Mof_I 	I 	0.1254	0.3211	0.4553	0.18
Mof_I 	I 	0.2339	0.2621	0.5505	-1.03
Mof_Zn	Zn	0.5792	0.6182	0.3489	0.649
Mof_I 	I 	0.6352	0.1699	0.9545	-0.546
Mof_Zn	Zn	0.6777	0.1419	0.0304	0.679
Mof_N 	N 	0.6937	0.0013	0.0349	-0.282
Mof_I 	I 	0.743	0.2202	0.0613	0.034
Mof_N 	N 	0.6463	0.1573	0.0773	-0.294
Mof_C 	C 	0.6656	0.9529	0.0057	0.029
Mof_C 	C 	0.724	0.9667	0.0616	0.058
Mof_C 	C 	0.6584	0.2078	0.1134	0.047
Mof_C 	C 	0.6088	0.1204	0.0698	0.053
Mof_H 	H 	0.6437	0.9808	0.9867	-0.005
Mof_C 	C 	0.6709	0.863	0.0055	-0.095
Mof_C 	C 	0.7301	0.8765	0.0611	-0.114
Mof_H 	H 	0.7419	0.0034	0.0815	-0.017
Mof_C 	C 	0.6333	0.2263	0.1429	-0.091
Mof_H 	H 	0.6844	0.2319	0.1194	-0.017
Mof_C 	C 	0.5828	0.1376	0.0963	-0.097
Mof_H 	H 	0.6008	0.0818	0.0455	-0.01
Mof_H 	H 	0.6519	0.8269	0.9866	0.075
Mof_C 	C 	0.7039	0.8235	0.0328	0.047
Mof_H 	H 	0.7525	0.851	0.0803	0.075
Mof_H 	H 	0.6425	0.2615	0.1684	0.074
Mof_C 	C 	0.5956	0.1923	0.134	0.049
Mof_H 	H 	0.5568	0.1135	0.0896	0.078
Mof_C 	C 	0.7101	0.7235	0.0314	0.097
Mof_C 	C 	0.5678	0.206	0.1642	0.117
Mof_N 	N 	0.7399	0.6901	0.0598	-0.142
Mof_N 	N 	0.684	0.6806	0.9984	-0.133
Mof_N 	N 	0.5765	0.2752	0.1907	-0.143
Mof_N 	N 	0.541	0.1464	0.1623	-0.143
Mof_C 	C 	0.7441	0.5997	0.053	0.072
Mof_C 	C 	0.6905	0.5951	0.9964	0.097
Mof_C 	C 	0.5519	0.2836	0.2178	0.081
Mof_C 	C 	0.5204	0.1582	0.192	0.086
Mof_N 	N 	0.7208	0.5507	0.0232	-0.144
Mof_C 	C 	0.7742	0.556	0.0847	0.046
Mof_C 	C 	0.6657	0.5466	0.9615	0.045
Mof_C 	C 	0.5557	0.3641	0.2463	0.05
Mof_N 	N 	0.5239	0.2266	0.2214	-0.15
Mof_C 	C 	0.4872	0.0951	0.1949	0.054
Mof_C 	C 	0.8003	0.6008	0.119	-0.12
Mof_C 	C 	0.7803	0.4654	0.0821	-0.119
Mof_C 	C 	0.6716	0.4555	0.9553	-0.101
Mof_C 	C 	0.6352	0.5845	0.9308	-0.11
Mof_C 	C 	0.5861	0.4223	0.2496	-0.122
Mof_C 	C 	0.5275	0.3839	0.2698	-0.114
Mof_C 	C 	0.4692	0.0876	0.2306	-0.126
Mof_C 	C 	0.4751	0.037	0.1607	-0.11
Mof_C 	C 	0.8294	0.5478	0.1474	0.097
Mof_H 	H 	0.7986	0.663	0.1231	0.089
Mof_H 	H 	0.7635	0.4322	0.0596	0.082
Mof_C 	C 	0.809	0.4236	0.1103	0.061
Mof_C 	C 	0.6457	0.4096	0.9197	0.048
Mof_H 	H 	0.6925	0.4247	0.9743	0.062
Mof_H 	H 	0.6326	0.6472	0.9308	0.093
Mof_C 	C 	0.6091	0.5378	0.901	0.069
Mof_C 	C 	0.5886	0.4918	0.2797	0.071
Mof_H 	H 	0.6051	0.416	0.232	0.078
Mof_C 	C 	0.531	0.4523	0.2988	0.066
Mof_H 	H 	0.5045	0.3479	0.2656	0.07
Mof_C 	C 	0.439	0.0348	0.2287	0.084
Mof_H 	H 	0.4791	0.1211	0.2565	0.081
Mof_C 	C 	0.4431	0.98	0.1609	0.067
Mof_H 	H 	0.4884	0.0349	0.1371	0.081
Mof_N 	N 	0.8342	0.4657	0.1443	-0.275
Mof_H 	H 	0.8468	0.5775	0.1708	-0.01
Mof_H 	H 	0.8122	0.3617	0.1066	0.008
Mof_N 	N 	0.6153	0.451	0.8938	-0.267
Mof_H 	H 	0.6503	0.3488	0.9147	-0.001
Mof_H 	H 	0.586	0.5662	0.8847	-0.004
Mof_N 	N 	0.5624	0.5061	0.3035	-0.289
Mof_H 	H 	0.6106	0.5309	0.2832	-0.019
Mof_H 	H 	0.5114	0.4618	0.3154	-0.002
Mof_H 	H 	0.426	0.0352	0.2524	-0.006
Mof_N 	N 	0.4252	0.979	0.1941	-0.268
Mof_H 	H 	0.4341	0.9415	0.1367	-0.014
Mof_Zn	Zn	0.8755	0.4025	0.1932	0.558
Mof_Zn	Zn	0.57503	0.38302	0.84734	1.168
Mof_Zn	Zn	0.5691	0.5982	0.3526	0.666
Mof_N 	N 	0.6132	0.5371	0.3989	-0.307
Mof_I 	I 	0.60287	0.7306	0.3264	0.3
Mof_I 	I 	0.50781	0.6125	0.383	-0.727
Mof_I 	I 	0.3528	0.9192	0.262	-0.171
Mof_I 	I 	0.3916	0.7604	0.1592	-0.094
Mof_C 	C 	0.6079	0.4537	0.4065	0.103
Mof_C 	C 	0.6452	0.5741	0.4232	0.089
Mof_C 	C 	0.631	0.4038	0.439	-0.146
Mof_H 	H 	0.586	0.4249	0.388	-0.009
Mof_C 	C 	0.6707	0.5309	0.4558	-0.156
Mof_H 	H 	0.6507	0.6342	0.4176	-0.007
Mof_H 	H 	0.6252	0.3437	0.4441	0.107
Mof_C 	C 	0.6643	0.4481	0.4644	0.08
Mof_H 	H 	0.6932	0.5608	0.4724	0.11
Mof_C 	C 	0.6917	0.3947	0.5004	0.096
Mof_N 	N 	0.6819	0.3082	0.5034	-0.132
Mof_N 	N 	0.7205	0.4378	0.5245	-0.14
Mof_C 	C 	0.7089	0.2624	0.533	0.104
Mof_C 	C 	0.7435	0.3888	0.5575	0.094
Mof_N 	N 	0.7381	0.3028	0.5607	-0.126
Mof_C 	C 	0.7048	0.1689	0.5343	0.088
Mof_C 	C 	0.7761	0.4395	0.5866	0.068
Mof_C 	C 	0.7315	0.1206	0.5659	-0.153
Mof_C 	C 	0.677	0.1256	0.5049	-0.152
Mof_C 	C 	0.8037	0.3928	0.6185	-0.116
Mof_C 	C 	0.7803	0.5258	0.5822	-0.139
Mof_H 	H 	0.7524	0.1457	0.5873	0.101
Mof_C 	C 	0.7223	0.0233	0.561	0.141
Mof_C 	C 	0.6733	0.036	0.506	0.096
Mof_H 	H 	0.6594	0.1585	0.4828	0.095
Mof_C 	C 	0.8321	0.4367	0.6466	0.055
Mof_H 	H 	0.8022	0.3301	0.62	0.104
Mof_C 	C 	0.8129	0.5706	0.611	0.073
Mof_H 	H 	0.7622	0.558	0.5605	0.109
Mof_N 	N 	0.6965	0.9826	0.5349	-0.361
Mof_H 	H 	0.7394	0.9867	0.5817	-0.071
Mof_H 	H 	0.6528	0.0097	0.4846	-0.045
Mof_N 	N 	0.8377	0.5273	0.6419	-0.298
Mof_H 	H 	0.8486	0.4056	0.6701	0.007
Mof_H 	H 	0.8165	0.6324	0.6074	-0.025
Mof_Zn	Zn	0.6952	0.8494	0.5424	0.903
Mof_Zn	Zn	0.8815	0.5948	0.6842	0.675
Mof_I 	I 	0.8932	0.7395	0.64776	-0.736
Mof_N 	N 	0.9265	0.5121	0.6918	-0.284
Mof_I 	I 	0.86008	0.5871	0.75576	0.179
Mof_C 	C 	0.9469	0.507	0.6552	0.024
Mof_C 	C 	0.9388	0.4592	0.7255	0.052
Mof_H 	H 	0.9397	0.5486	0.6319	0.002
Mof_C 	C 	0.9744	0.449	0.6531	-0.096
Mof_C 	C 	0.9714	0.3982	0.7248	-0.103
Mof_H 	H 	0.9267	0.4607	0.75	-0.01
Mof_C 	C 	0.9887	0.3928	0.6907	0.022
Mof_H 	H 	0.9846	0.4431	0.6274	0.063
Mof_H 	H 	0.9806	0.361	0.7495	0.07
Mof_C 	C 	0.0201	0.3332	0.6922	0.081
Mof_N 	N 	0.025	0.266	0.7216	-0.152
Mof_N 	N 	0.0427	0.3464	0.6627	-0.13
Mof_C 	C 	0.0543	0.2089	0.718	0.082
Mof_C 	C 	0.0744	0.2892	0.6639	0.079
Mof_C 	C 	0.0575	0.1294	0.746	0.055
Mof_N 	N 	0.0791	0.2163	0.6911	-0.126
Mof_C 	C 	0.0994	0.3003	0.6343	0.093
Mof_C 	C 	0.0884	0.0712	0.7506	-0.12
Mof_C 	C 	0.0288	0.1106	0.7687	-0.119
Mof_C 	C 	0.1336	0.2559	0.6408	-0.166
Mof_C 	C 	0.0895	0.354	0.598	-0.132
Mof_C 	C 	0.0926	0.9991	0.778	0.082
Mof_H 	H 	0.1079	0.0812	0.734	0.083
Mof_C 	C 	0.0344	0.0363	0.7954	0.063
Mof_H 	H 	0.0061	0.1472	0.7663	0.066
Mof_H 	H 	0.1403	0.2133	0.6636	0.1
Mof_C 	C 	0.1587	0.273	0.6139	0.125
Mof_H 	H 	0.0641	0.38	0.5895	0.083
Mof_C 	C 	0.1188	0.367	0.5742	0.057
Mof_N 	N 	0.0659	0.9798	0.7997	-0.277
Mof_H 	H 	0.1155	0.9628	0.7812	-0.017
Mof_H 	H 	0.015	0.0236	0.8118	-0.007
Mof_N 	N 	0.1559	0.332	0.5828	-0.354
Mof_H 	H 	0.1817	0.2368	0.6184	-0.025
Mof_H 	H 	0.112	0.4049	0.5494	-0.058
Mof_I 	I 	0.10763	0.75654	0.81922	-0.383
Mof_I 	I 	0.01512	0.86742	0.88113	-0.352
Mof_I 	I 	0.26029	0.284	0.57851	0.452
Mof_I 	I 	0.1589	0.2972	0.4687	-0.767
Mof_Zn	Zn	0.6919	0.1379	0.0408	0.681
Mof_I 	I 	0.6495	0.1873	0.9658	0.129
Mof_I 	I 	0.7548	0.2134	0.0732	-0.451
Mof_Zn	Zn	0.8761	0.397	0.1866	0.55
Mof_I 	I 	0.8535	0.4133	0.2616	-0.147
Mof_I 	I 	0.8887	0.2542	0.1502	-0.237
Mof_I 	I 	0.1183	0.226	0.316	-0.728
Mof_I 	I 	0.0216	0.1427	0.3803	0.321
Mof_Zn	Zn	0.3733	0.0952	0.6955	0.647
Mof_I 	I 	0.3839	0.2283	0.6634	0.284
Mof_I 	I 	0.3513	0.074	0.7669	-0.586
Mof_Zn	Zn	0.6726	0.8504	0.5267	0.883
Mof_I 	I 	0.6254	0.8211	0.4553	0.178
Mof_I 	I 	0.7339	0.7621	0.5505	-1.03
Mof_Zn	Zn	0.0792	0.1182	0.3489	0.649
_end
