# CIF file generated by openbabel 2.4.1, see http://openbabel.sf.net
data_I
_chemical_name_common 'ja5b00450_si_005_clean'
_cell_length_a 26.1763
_cell_length_b 26.1763
_cell_length_c 26.3956
_cell_angle_alpha 90
_cell_angle_beta 90
_cell_angle_gamma 120
_space_group_name_H-M_alt 'P 1'
_space_group_name_Hall 'P 1'
loop_
    _symmetry_equiv_pos_as_xyz
    x,y,z
loop_
    _atom_site_label
    _atom_site_type_symbol
    _atom_site_fract_x
    _atom_site_fract_y
    _atom_site_fract_z
    _atom_site_occupancy
    Y1      Y    0.84942   0.00000   0.00000   1.000
    Y2      Y    0.57380   0.00000   0.42641   1.000
    Y3      Y    0.00000   0.42620   0.57359   1.000
    Y4      Y    0.57380   0.00000   0.57359   1.000
    Y5      Y    0.88068   0.44034   0.50000   1.000
    Y6      Y    0.15058   0.15058   0.00000   1.000
    Y7      Y    0.11932   0.55966   0.50000   1.000
    Y8      Y    0.42620   0.42620   0.57359   1.000
    Y9      Y    0.00000   0.57380   0.57359   1.000
    Y10     Y    0.55966   0.44034   0.50000   1.000
    Y11     Y    0.00000   0.57380   0.42641   1.000
    Y12     Y    0.44034   0.88068   0.50000   1.000
    Y13     Y    0.55966   0.11932   0.50000   1.000
    Y14     Y    0.00000   0.15058   0.00000   1.000
    Y15     Y    0.00000   0.42620   0.42641   1.000
    Y16     Y    0.42620   0.00000   0.42641   1.000
    Y17     Y    0.44034   0.55966   0.50000   1.000
    Y18     Y    0.84942   0.84942   0.00000   1.000
    Y19     Y    0.57380   0.57380   0.57359   1.000
    Y20     Y    0.00000   0.84942   0.00000   1.000
    Y21     Y    0.57380   0.57380   0.42641   1.000
    Y22     Y    0.42620   0.00000   0.57359   1.000
    Y23     Y    0.42620   0.42620   0.42641   1.000
    Y24     Y    0.15058   0.00000   0.00000   1.000
    H1      H    0.40400   0.13400   0.24820   1.000
    H2      H    0.64900   0.92460   0.17830   1.000
    H3      H    0.00000   0.24970   0.42410   1.000
    H4      H    0.29080   0.04490   0.31640   1.000
    H5      H    0.59090   0.31980   0.47670   1.000
    H6      H    0.31660   0.61640   0.57760   1.000
    H7      H    0.74275   0.48550   0.56040   1.000
    H8      H    0.98530   0.75680   0.31250   1.000
    H9      H    0.57720   0.00000   0.83630   1.000
    H10     H    0.01490   0.71200   0.29890   1.000
    H11     H    0.11550   0.29840   0.75910   1.000
    H12     H    0.75800   0.65230   0.71470   1.000
    H13     H    0.59600   0.86600   0.75180   1.000
    H14     H    0.58530   0.30860   0.51620   1.000
    H15     H    0.89540   0.65560   0.49730   1.000
    H16     H    0.16810   0.32060   0.58540   1.000
    H17     H    0.86600   0.59600   0.24820   1.000
    H18     H    0.98530   0.75680   0.68750   1.000
    H19     H    0.18800   0.94610   0.62090   1.000
    H20     H    0.88450   0.18290   0.75910   1.000
    H21     H    0.73310   0.32040   0.51740   1.000
    H22     H    0.67940   0.83190   0.41460   1.000
    H23     H    0.21820   0.91780   0.41300   1.000
    H24     H    0.00000   0.88480   0.50000   1.000
    H25     H    0.23610   0.16630   0.17170   1.000
    H26     H    0.00000   0.16040   0.42330   1.000
    H27     H    0.30290   0.28800   0.29890   1.000
    H28     H    0.23200   0.90550   0.51850   1.000
    H29     H    0.50000   0.00000   0.11830   1.000
    H30     H    0.60480   0.74540   0.47400   1.000
    H31     H    0.42280   0.00000   0.16370   1.000
    H32     H    0.83190   0.15250   0.58540   1.000
    H33     H    0.58530   0.27670   0.48380   1.000
    H34     H    0.24970   0.00000   0.57590   1.000
    H35     H    0.06980   0.83370   0.82830   1.000
    H36     H    0.30040   0.08220   0.58700   1.000
    H37     H    0.35100   0.07540   0.17830   1.000
    H38     H    0.63120   0.24350   0.49770   1.000
    H39     H    0.38770   0.63120   0.49770   1.000
    H40     H    0.24340   0.02240   0.43060   1.000
    H41     H    0.70980   0.13500   0.66850   1.000
    H42     H    0.64000   0.66800   0.37210   1.000
    H43     H    0.57760   0.00000   0.25290   1.000
    H44     H    0.13830   0.74550   0.45970   1.000
    H45     H    0.24970   0.24970   0.57590   1.000
    H46     H    0.81710   0.70160   0.24090   1.000
    H47     H    0.77900   0.75660   0.56940   1.000
    H48     H    0.22100   0.97760   0.56940   1.000
    H49     H    0.34770   0.10570   0.28530   1.000
    H50     H    0.97760   0.22100   0.56940   1.000
    H51     H    0.29980   0.61640   0.57760   1.000
    H52     H    0.64140   0.37870   0.54940   1.000
    H53     H    0.60480   0.74540   0.52600   1.000
    H54     H    0.39520   0.25460   0.52600   1.000
    H55     H    0.65560   0.76020   0.50270   1.000
    H56     H    0.64900   0.72440   0.17830   1.000
    H57     H    0.09450   0.32650   0.51850   1.000
    H58     H    0.27000   0.40400   0.75180   1.000
    H59     H    0.75030   0.75030   0.57590   1.000
    H60     H    0.07540   0.72440   0.82170   1.000
    H61     H    0.01470   0.77150   0.31250   1.000
    H62     H    0.30860   0.72330   0.51620   1.000
    H63     H    0.05390   0.81200   0.37910   1.000
    H64     H    0.58730   0.32040   0.51740   1.000
    H65     H    0.24190   0.05390   0.37910   1.000
    H66     H    0.41470   0.72330   0.51620   1.000
    H67     H    0.98510   0.28800   0.29890   1.000
    H68     H    0.65230   0.75800   0.71470   1.000
    H69     H    0.00000   0.57760   0.25290   1.000
    H70     H    0.16040   0.00000   0.57670   1.000
    H71     H    0.57720   0.57720   0.83630   1.000
    H72     H    0.40680   0.16030   0.51720   1.000
    H73     H    0.01490   0.71200   0.70110   1.000
    H74     H    0.34690   0.19710   0.44450   1.000
    H75     H    0.39520   0.14060   0.47400   1.000
    H76     H    0.22100   0.24340   0.56940   1.000
    H77     H    0.42240   0.42240   0.25290   1.000
    H78     H    0.67960   0.41270   0.51740   1.000
    H79     H    0.38770   0.75650   0.49770   1.000
    H80     H    0.05880   0.28860   0.10910   1.000
    H81     H    0.86500   0.29020   0.66850   1.000
    H82     H    0.25460   0.85940   0.47400   1.000
    H83     H    0.67350   0.76800   0.51850   1.000
    H84     H    0.27560   0.92460   0.17830   1.000
    H85     H    0.28800   0.98510   0.70110   1.000
    H86     H    0.61640   0.31660   0.57760   1.000
    H87     H    0.57760   0.57760   0.74710   1.000
    H88     H    0.77900   0.02240   0.43060   1.000
    H89     H    0.83970   0.24650   0.51720   1.000
    H90     H    0.73730   0.35860   0.54940   1.000
    H91     H    0.00000   0.50000   0.11830   1.000
    H92     H    0.85940   0.25460   0.47400   1.000
    H93     H    0.27000   0.86600   0.75180   1.000
    H94     H    0.16630   0.93020   0.17170   1.000
    H95     H    0.92460   0.64900   0.82170   1.000
    H96     H    0.11550   0.81710   0.75910   1.000
    H97     H    0.69710   0.71200   0.70110   1.000
    H98     H    0.59090   0.27110   0.47670   1.000
    H99     H    0.61640   0.29980   0.42240   1.000
    H100    H    0.13400   0.73000   0.75180   1.000
    H101    H    0.80290   0.14980   0.44450   1.000
    H102    H    0.36880   0.75650   0.49770   1.000
    H103    H    0.66800   0.02800   0.62790   1.000
    H104    H    0.63170   0.37790   0.43940   1.000
    H105    H    0.70020   0.31660   0.42240   1.000
    H106    H    0.10460   0.34440   0.49730   1.000
    H107    H    0.25725   0.51450   0.43960   1.000
    H108    H    0.24650   0.83970   0.51720   1.000
    H109    H    0.35860   0.73730   0.54940   1.000
    H110    H    0.34440   0.23980   0.49730   1.000
    H111    H    0.31980   0.72890   0.47670   1.000
    H112    H    0.02800   0.66800   0.62790   1.000
    H113    H    0.67960   0.26690   0.51740   1.000
    H114    H    0.25380   0.63170   0.56060   1.000
    H115    H    0.81710   0.11550   0.75910   1.000
    H116    H    0.85940   0.25460   0.52600   1.000
    H117    H    0.29840   0.11550   0.24090   1.000
    H118    H    0.86170   0.60720   0.45970   1.000
    H119    H    0.68020   0.40910   0.52330   1.000
    H120    H    0.63170   0.37790   0.56060   1.000
    H121    H    0.40910   0.68020   0.47670   1.000
    H122    H    0.37790   0.74620   0.56060   1.000
    H123    H    0.00000   0.83960   0.57670   1.000
    H124    H    0.70920   0.75410   0.68360   1.000
    H125    H    0.88450   0.70160   0.75910   1.000
    H126    H    0.24340   0.22100   0.56940   1.000
    H127    H    0.74275   0.25725   0.43960   1.000
    H128    H    0.57480   0.86500   0.66850   1.000
    H129    H    0.18290   0.88450   0.75910   1.000
    H130    H    0.01470   0.24320   0.31250   1.000
    H131    H    0.86600   0.59600   0.75180   1.000
    H132    H    0.23200   0.32650   0.48150   1.000
    H133    H    0.98510   0.69710   0.29890   1.000
    H134    H    0.59320   0.75350   0.48280   1.000
    H135    H    0.89430   0.24200   0.28530   1.000
    H136    H    0.00000   0.42280   0.83630   1.000
    H137    H    0.73310   0.41270   0.48260   1.000
    H138    H    0.67940   0.83190   0.58540   1.000
    H139    H    0.62210   0.25380   0.43940   1.000
    H140    H    0.74540   0.14060   0.52600   1.000
    H141    H    0.27110   0.68020   0.47670   1.000
    H142    H    0.29840   0.11550   0.75910   1.000
    H143    H    0.06980   0.83370   0.17170   1.000
    H144    H    0.25380   0.63170   0.43940   1.000
    H145    H    0.30040   0.21820   0.58700   1.000
    H146    H    0.36000   0.33200   0.37210   1.000
    H147    H    0.75810   0.81200   0.62090   1.000
    H148    H    0.11550   0.29840   0.24090   1.000
    H149    H    0.68020   0.27110   0.47670   1.000
    H150    H    0.36830   0.74620   0.43940   1.000
    H151    H    0.63120   0.24350   0.50230   1.000
    H152    H    0.14980   0.80290   0.55550   1.000
    H153    H    0.61230   0.36880   0.49770   1.000
    H154    H    0.57480   0.70980   0.66850   1.000
    H155    H    0.75650   0.36880   0.49770   1.000
    H156    H    0.16810   0.84750   0.41460   1.000
    H157    H    0.28800   0.30290   0.29890   1.000
    H158    H    0.06980   0.23610   0.82830   1.000
    H159    H    0.14980   0.34690   0.44450   1.000
    H160    H    0.70160   0.88450   0.24090   1.000
    H161    H    0.39520   0.14060   0.52600   1.000
    H162    H    0.09450   0.76800   0.51850   1.000
    H163    H    0.75410   0.04490   0.31640   1.000
    H164    H    0.57760   0.00000   0.74710   1.000
    H165    H    0.16040   0.16040   0.57670   1.000
    H166    H    0.85940   0.60480   0.52600   1.000
    H167    H    0.00000   0.16040   0.57670   1.000
    H168    H    0.19710   0.85020   0.44450   1.000
    H169    H    0.74275   0.48550   0.43960   1.000
    H170    H    0.83970   0.59320   0.51720   1.000
    H171    H    0.22980   0.94120   0.89090   1.000
    H172    H    0.02800   0.36000   0.37210   1.000
    H173    H    0.83960   0.00000   0.57670   1.000
    H174    H    0.31660   0.61640   0.42240   1.000
    H175    H    0.18290   0.88450   0.24090   1.000
    H176    H    0.70980   0.57480   0.66850   1.000
    H177    H    0.89540   0.23980   0.50270   1.000
    H178    H    0.81200   0.05390   0.37910   1.000
    H179    H    0.39280   0.13830   0.45970   1.000
    H180    H    0.18800   0.24190   0.37910   1.000
    H181    H    0.84750   0.16810   0.41460   1.000
    H182    H    0.59600   0.86600   0.24820   1.000
    H183    H    0.27670   0.58530   0.48380   1.000
    H184    H    0.98510   0.69710   0.70110   1.000
    H185    H    0.32040   0.58730   0.51740   1.000
    H186    H    0.30860   0.72330   0.48380   1.000
    H187    H    0.32650   0.23200   0.48150   1.000
    H188    H    0.91780   0.21820   0.41300   1.000
    H189    H    0.63170   0.25380   0.43940   1.000
    H190    H    0.34690   0.14980   0.55550   1.000
    H191    H    0.61640   0.31660   0.42240   1.000
    H192    H    0.32040   0.73310   0.51740   1.000
    H193    H    0.67960   0.41270   0.48260   1.000
    H194    H    0.65310   0.80290   0.44450   1.000
    H195    H    0.23980   0.34440   0.50270   1.000
    H196    H    0.37870   0.73730   0.45060   1.000
    H197    H    0.36880   0.61230   0.50230   1.000
    H198    H    0.75800   0.10570   0.71470   1.000
    H199    H    0.68340   0.29980   0.42240   1.000
    H200    H    0.75660   0.97760   0.43060   1.000
    H201    H    0.32060   0.16810   0.41460   1.000
    H202    H    0.24590   0.29080   0.68360   1.000
    H203    H    0.66800   0.64000   0.62790   1.000
    H204    H    0.24650   0.40680   0.48280   1.000
    H205    H    0.21820   0.30040   0.41300   1.000
    H206    H    0.95510   0.24590   0.68360   1.000
    H207    H    0.94610   0.75810   0.37910   1.000
    H208    H    0.24970   0.00000   0.42410   1.000
    H209    H    0.35860   0.62130   0.45060   1.000
    H210    H    0.50000   0.50000   0.11830   1.000
    H211    H    0.94610   0.18800   0.62090   1.000
    H212    H    0.16030   0.40680   0.48280   1.000
    H213    H    0.32060   0.15250   0.58540   1.000
    H214    H    0.64140   0.26270   0.45060   1.000
    H215    H    0.67350   0.90550   0.51850   1.000
    H216    H    0.69140   0.41470   0.48380   1.000
    H217    H    0.73000   0.13400   0.24820   1.000
    H218    H    0.25460   0.85940   0.52600   1.000
    H219    H    0.36000   0.02800   0.37210   1.000
    H220    H    0.75800   0.65230   0.28530   1.000
    H221    H    0.08220   0.30040   0.58700   1.000
    H222    H    0.90550   0.23200   0.51850   1.000
    H223    H    0.95510   0.70920   0.31640   1.000
    H224    H    0.65230   0.89430   0.28530   1.000
    H225    H    0.38360   0.70020   0.57760   1.000
    H226    H    0.88450   0.18290   0.24090   1.000
    H227    H    0.24190   0.18800   0.37910   1.000
    H228    H    0.02240   0.77900   0.56940   1.000
    H229    H    0.74275   0.25725   0.56040   1.000
    H230    H    0.25450   0.39280   0.54030   1.000
    H231    H    0.22980   0.94120   0.10910   1.000
    H232    H    0.70020   0.38360   0.42240   1.000
    H233    H    0.75030   0.00000   0.42410   1.000
    H234    H    0.29080   0.24590   0.68360   1.000
    H235    H    0.76020   0.65560   0.50270   1.000
    H236    H    0.14060   0.39520   0.47400   1.000
    H237    H    0.75650   0.38770   0.49770   1.000
    H238    H    0.41270   0.73310   0.51740   1.000
    H239    H    0.78180   0.08220   0.58700   1.000
    H240    H    0.69960   0.91780   0.41300   1.000
    H241    H    0.25725   0.51450   0.56040   1.000
    H242    H    0.60720   0.74550   0.54030   1.000
    H243    H    0.27000   0.86600   0.24820   1.000
    H244    H    0.71200   0.69710   0.70110   1.000
    H245    H    0.31660   0.70020   0.42240   1.000
    H246    H    0.11520   0.11520   0.50000   1.000
    H247    H    0.67960   0.26690   0.48260   1.000
    H248    H    0.04490   0.75410   0.68360   1.000
    H249    H    0.97200   0.64000   0.62790   1.000
    H250    H    0.25460   0.39520   0.47400   1.000
    H251    H    0.62210   0.36830   0.56060   1.000
    H252    H    0.61640   0.29980   0.57760   1.000
    H253    H    0.74540   0.60480   0.52600   1.000
    H254    H    0.02240   0.24340   0.43060   1.000
    H255    H    0.31660   0.70020   0.57760   1.000
    H256    H    0.63120   0.38770   0.49770   1.000
    H257    H    0.60480   0.85940   0.47400   1.000
    H258    H    0.74550   0.13830   0.54030   1.000
    H259    H    0.93020   0.76390   0.17170   1.000
    H260    H    0.83370   0.06980   0.82830   1.000
    H261    H    0.27110   0.59090   0.47670   1.000
    H262    H    0.75350   0.59320   0.48280   1.000
    H263    H    0.24200   0.34770   0.28530   1.000
    H264    H    0.93020   0.16630   0.82830   1.000
    H265    H    0.78180   0.69960   0.58700   1.000
    H266    H    0.58730   0.26690   0.51740   1.000
    H267    H    0.42280   0.42280   0.16370   1.000
    H268    H    0.64140   0.37870   0.45060   1.000
    H269    H    0.60720   0.74550   0.45970   1.000
    H270    H    0.89540   0.65560   0.50270   1.000
    H271    H    0.18290   0.29840   0.75910   1.000
    H272    H    0.98530   0.22850   0.68750   1.000
    H273    H    0.23200   0.32650   0.51850   1.000
    H274    H    0.59320   0.83970   0.48280   1.000
    H275    H    0.75810   0.94610   0.62090   1.000
    H276    H    0.72330   0.41470   0.48380   1.000
    H277    H    0.05880   0.77020   0.10910   1.000
    H278    H    0.42520   0.13500   0.33150   1.000
    H279    H    0.38360   0.68340   0.42240   1.000
    H280    H    0.29080   0.04490   0.68360   1.000
    H281    H    0.57760   0.57760   0.25290   1.000
    H282    H    0.35100   0.27560   0.82170   1.000
    H283    H    0.70920   0.95510   0.31640   1.000
    H284    H    0.30040   0.08220   0.41300   1.000
    H285    H    0.24320   0.22850   0.31250   1.000
    H286    H    0.10460   0.76020   0.49730   1.000
    H287    H    0.72890   0.31980   0.52330   1.000
    H288    H    0.74620   0.36830   0.56060   1.000
    H289    H    0.75350   0.16030   0.51720   1.000
    H290    H    0.65310   0.85020   0.44450   1.000
    H291    H    0.27000   0.40400   0.24820   1.000
    H292    H    0.13830   0.39280   0.45970   1.000
    H293    H    0.07540   0.35100   0.82170   1.000
    H294    H    0.39280   0.25450   0.54030   1.000
    H295    H    0.74550   0.60720   0.45970   1.000
    H296    H    0.75410   0.70920   0.68360   1.000
    H297    H    0.15250   0.83190   0.58540   1.000
    H298    H    0.37790   0.63170   0.43940   1.000
    H299    H    0.26690   0.58730   0.48260   1.000
    H300    H    0.00000   0.57720   0.16370   1.000
    H301    H    0.18290   0.29840   0.24090   1.000
    H302    H    0.90550   0.67350   0.48150   1.000
    H303    H    0.89430   0.24200   0.71470   1.000
    H304    H    0.76020   0.65560   0.49730   1.000
    H305    H    0.76390   0.93020   0.82830   1.000
    H306    H    0.68340   0.38360   0.42240   1.000
    H307    H    0.77020   0.71140   0.10910   1.000
    H308    H    0.37790   0.63170   0.56060   1.000
    H309    H    0.14060   0.39520   0.52600   1.000
    H310    H    0.25460   0.39520   0.52600   1.000
    H311    H    0.23610   0.06980   0.82830   1.000
    H312    H    0.41270   0.67960   0.51740   1.000
    H313    H    0.10570   0.34770   0.28530   1.000
    H314    H    0.81200   0.75810   0.37910   1.000
    H315    H    0.75350   0.59320   0.51720   1.000
    H316    H    0.75030   0.75030   0.42410   1.000
    H317    H    0.11520   0.00000   0.50000   1.000
    H318    H    0.05390   0.24190   0.37910   1.000
    H319    H    0.14980   0.34690   0.55550   1.000
    H320    H    0.16810   0.84750   0.58540   1.000
    H321    H    0.81710   0.70160   0.75910   1.000
    H322    H    0.93020   0.76390   0.82830   1.000
    H323    H    0.74540   0.14060   0.47400   1.000
    H324    H    0.86170   0.25450   0.54030   1.000
    H325    H    0.91780   0.69960   0.58700   1.000
    H326    H    0.97200   0.64000   0.37210   1.000
    H327    H    0.83960   0.83960   0.42330   1.000
    H328    H    0.24350   0.61230   0.49770   1.000
    H329    H    0.74620   0.37790   0.43940   1.000
    H330    H    0.36830   0.62210   0.56060   1.000
    H331    H    0.76020   0.10460   0.49730   1.000
    H332    H    0.40400   0.27000   0.75180   1.000
    H333    H    0.00000   0.50000   0.88170   1.000
    H334    H    0.24200   0.89430   0.71470   1.000
    H335    H    0.86170   0.60720   0.54030   1.000
    H336    H    0.13400   0.40400   0.24820   1.000
    H337    H    0.13500   0.42520   0.66850   1.000
    H338    H    0.35860   0.73730   0.45060   1.000
    H339    H    0.13830   0.74550   0.54030   1.000
    H340    H    0.34440   0.10460   0.49730   1.000
    H341    H    0.00000   0.24970   0.57590   1.000
    H342    H    0.13500   0.70980   0.33150   1.000
    H343    H    0.34770   0.24200   0.71470   1.000
    H344    H    0.24350   0.63120   0.49770   1.000
    H345    H    0.61230   0.24350   0.49770   1.000
    H346    H    0.95510   0.70920   0.68360   1.000
    H347    H    0.27110   0.68020   0.52330   1.000
    H348    H    0.00000   0.75030   0.57590   1.000
    H349    H    0.16030   0.40680   0.51720   1.000
    H350    H    0.97760   0.75660   0.56940   1.000
    H351    H    0.42280   0.00000   0.83630   1.000
    H352    H    0.81710   0.11550   0.24090   1.000
    H353    H    0.72440   0.64900   0.17830   1.000
    H354    H    0.30860   0.58530   0.51620   1.000
    H355    H    0.24350   0.63120   0.50230   1.000
    H356    H    0.01490   0.30290   0.70110   1.000
    H357    H    0.08220   0.78180   0.58700   1.000
    H358    H    0.76020   0.10460   0.50270   1.000
    H359    H    0.05880   0.28860   0.89090   1.000
    H360    H    0.68340   0.38360   0.57760   1.000
    H361    H    0.73310   0.41270   0.51740   1.000
    H362    H    0.33200   0.97200   0.37210   1.000
    H363    H    0.34690   0.14980   0.44450   1.000
    H364    H    0.92460   0.27560   0.82170   1.000
    H365    H    0.67940   0.84750   0.58540   1.000
    H366    H    0.22980   0.28860   0.10910   1.000
    H367    H    0.13500   0.70980   0.66850   1.000
    H368    H    0.37870   0.73730   0.54940   1.000
    H369    H    0.67350   0.76800   0.48150   1.000
    H370    H    0.24650   0.40680   0.51720   1.000
    H371    H    0.24200   0.89430   0.28530   1.000
    H372    H    0.86600   0.27000   0.24820   1.000
    H373    H    0.51450   0.25725   0.43960   1.000
    H374    H    0.85940   0.60480   0.47400   1.000
    H375    H    0.10570   0.75800   0.28530   1.000
    H376    H    0.76390   0.83370   0.82830   1.000
    H377    H    0.70920   0.95510   0.68360   1.000
    H378    H    0.25725   0.74275   0.43960   1.000
    H379    H    0.24340   0.02240   0.56940   1.000
    H380    H    0.65230   0.75800   0.28530   1.000
    H381    H    0.18800   0.94610   0.37910   1.000
    H382    H    0.75810   0.81200   0.37910   1.000
    H383    H    0.98530   0.22850   0.31250   1.000
    H384    H    0.75800   0.10570   0.28530   1.000
    H385    H    0.27670   0.69140   0.48380   1.000
    H386    H    0.71140   0.77020   0.89090   1.000
    H387    H    0.05390   0.81200   0.62090   1.000
    H388    H    0.24190   0.05390   0.62090   1.000
    H389    H    0.80290   0.65310   0.44450   1.000
    H390    H    0.58730   0.26690   0.48260   1.000
    H391    H    0.77900   0.75660   0.43060   1.000
    H392    H    0.83970   0.59320   0.48280   1.000
    H393    H    0.57720   0.57720   0.16370   1.000
    H394    H    0.89430   0.65230   0.71470   1.000
    H395    H    0.69960   0.78180   0.58700   1.000
    H396    H    0.40910   0.68020   0.52330   1.000
    H397    H    0.97760   0.22100   0.43060   1.000
    H398    H    0.23980   0.34440   0.49730   1.000
    H399    H    0.59090   0.27110   0.52330   1.000
    H400    H    0.75410   0.04490   0.68360   1.000
    H401    H    0.22980   0.28860   0.89090   1.000
    H402    H    0.02800   0.36000   0.62790   1.000
    H403    H    0.73730   0.37870   0.54940   1.000
    H404    H    0.65560   0.89540   0.50270   1.000
    H405    H    0.14980   0.80290   0.44450   1.000
    H406    H    0.36000   0.33200   0.62790   1.000
    H407    H    0.16040   0.16040   0.42330   1.000
    H408    H    0.23200   0.90550   0.48150   1.000
    H409    H    0.97200   0.33200   0.37210   1.000
    H410    H    0.04490   0.29080   0.68360   1.000
    H411    H    0.31980   0.59090   0.47670   1.000
    H412    H    0.39280   0.25450   0.45970   1.000
    H413    H    0.22850   0.24320   0.68750   1.000
    H414    H    0.80290   0.65310   0.55550   1.000
    H415    H    0.75680   0.98530   0.68750   1.000
    H416    H    0.26270   0.64140   0.45060   1.000
    H417    H    0.69140   0.27670   0.51620   1.000
    H418    H    0.83370   0.76390   0.82830   1.000
    H419    H    0.70980   0.13500   0.33150   1.000
    H420    H    0.71200   0.69710   0.29890   1.000
    H421    H    0.67940   0.84750   0.41460   1.000
    H422    H    0.22100   0.24340   0.43060   1.000
    H423    H    0.59320   0.75350   0.51720   1.000
    H424    H    0.58530   0.30860   0.48380   1.000
    H425    H    0.64000   0.97200   0.62790   1.000
    H426    H    0.64000   0.97200   0.37210   1.000
    H427    H    0.70980   0.57480   0.33150   1.000
    H428    H    0.22850   0.98530   0.68750   1.000
    H429    H    0.89540   0.23980   0.49730   1.000
    H430    H    0.74540   0.60480   0.47400   1.000
    H431    H    0.14060   0.74540   0.47400   1.000
    H432    H    0.72330   0.30860   0.48380   1.000
    H433    H    0.24590   0.95510   0.31640   1.000
    H434    H    0.35100   0.27560   0.17830   1.000
    H435    H    0.26690   0.58730   0.51740   1.000
    H436    H    0.15250   0.32060   0.41460   1.000
    H437    H    0.64140   0.26270   0.54940   1.000
    H438    H    0.60720   0.86170   0.45970   1.000
    H439    H    0.00000   0.11520   0.50000   1.000
    H440    H    0.72890   0.40910   0.52330   1.000
    H441    H    0.73000   0.13400   0.75180   1.000
    H442    H    0.28800   0.30290   0.70110   1.000
    H443    H    0.24650   0.83970   0.48280   1.000
    H444    H    0.83370   0.06980   0.17170   1.000
    H445    H    0.16030   0.75350   0.51720   1.000
    H446    H    0.30290   0.01490   0.29890   1.000
    H447    H    0.07540   0.35100   0.17830   1.000
    H448    H    0.27110   0.59090   0.52330   1.000
    H449    H    0.33200   0.36000   0.62790   1.000
    H450    H    0.24340   0.22100   0.43060   1.000
    H451    H    0.75660   0.77900   0.43060   1.000
    H452    H    0.27670   0.58530   0.51620   1.000
    H453    H    0.69710   0.98510   0.70110   1.000
    H454    H    0.68340   0.29980   0.57760   1.000
    H455    H    0.41270   0.73310   0.48260   1.000
    H456    H    0.06980   0.23610   0.17170   1.000
    H457    H    0.41470   0.69140   0.51620   1.000
    H458    H    0.90550   0.67350   0.51850   1.000
    H459    H    0.23980   0.89540   0.49730   1.000
    H460    H    0.25450   0.86170   0.54030   1.000
    H461    H    0.36000   0.02800   0.62790   1.000
    H462    H    0.32040   0.73310   0.48260   1.000
    H463    H    0.27560   0.35100   0.17830   1.000
    H464    H    0.31980   0.59090   0.52330   1.000
    H465    H    0.70020   0.31660   0.57760   1.000
    H466    H    0.69960   0.91780   0.58700   1.000
    H467    H    0.29020   0.42520   0.33150   1.000
    H468    H    0.51450   0.25725   0.56040   1.000
    H469    H    0.72440   0.07540   0.17830   1.000
    H470    H    0.70160   0.81710   0.24090   1.000
    H471    H    0.75650   0.38770   0.50230   1.000
    H472    H    0.16630   0.93020   0.82830   1.000
    H473    H    0.40680   0.24650   0.48280   1.000
    H474    H    0.72330   0.30860   0.51620   1.000
    H475    H    0.34690   0.19710   0.55550   1.000
    H476    H    0.59090   0.31980   0.52330   1.000
    H477    H    0.14060   0.74540   0.52600   1.000
    H478    H    0.63120   0.38770   0.50230   1.000
    H479    H    0.91780   0.21820   0.58700   1.000
    H480    H    0.24350   0.61230   0.50230   1.000
    H481    H    0.00000   0.42280   0.16370   1.000
    H482    H    0.19710   0.85020   0.55550   1.000
    H483    H    0.75680   0.98530   0.31250   1.000
    H484    H    0.01470   0.24320   0.68750   1.000
    H485    H    0.09450   0.32650   0.48150   1.000
    H486    H    0.62210   0.25380   0.56060   1.000
    H487    H    0.28860   0.22980   0.10910   1.000
    H488    H    0.24320   0.22850   0.68750   1.000
    H489    H    0.64900   0.92460   0.82170   1.000
    H490    H    0.32650   0.09450   0.51850   1.000
    H491    H    0.84750   0.67940   0.58540   1.000
    H492    H    0.33200   0.36000   0.37210   1.000
    H493    H    0.22100   0.97760   0.43060   1.000
    H494    H    0.37790   0.74620   0.43940   1.000
    H495    H    0.26690   0.67960   0.48260   1.000
    H496    H    0.66800   0.02800   0.37210   1.000
    H497    H    0.94120   0.71140   0.89090   1.000
    H498    H    0.71140   0.94120   0.10910   1.000
    H499    H    0.58530   0.27670   0.51620   1.000
    H500    H    0.37870   0.64140   0.45060   1.000
    H501    H    0.29020   0.86500   0.33150   1.000
    H502    H    0.02240   0.24340   0.56940   1.000
    H503    H    0.70920   0.75410   0.31640   1.000
    H504    H    0.72330   0.41470   0.51620   1.000
    H505    H    0.21820   0.91780   0.58700   1.000
    H506    H    0.42240   0.42240   0.74710   1.000
    H507    H    0.18800   0.24190   0.62090   1.000
    H508    H    0.77900   0.02240   0.56940   1.000
    H509    H    0.40910   0.72890   0.52330   1.000
    H510    H    0.75650   0.36880   0.50230   1.000
    H511    H    0.74550   0.60720   0.54030   1.000
    H512    H    0.29980   0.61640   0.42240   1.000
    H513    H    0.29020   0.86500   0.66850   1.000
    H514    H    0.24590   0.95510   0.68360   1.000
    H515    H    0.40680   0.16030   0.48280   1.000
    H516    H    0.77150   0.01470   0.68750   1.000
    H517    H    0.86170   0.25450   0.45970   1.000
    H518    H    0.34440   0.23980   0.50270   1.000
    H519    H    0.94120   0.71140   0.10910   1.000
    H520    H    0.28860   0.22980   0.89090   1.000
    H521    H    0.85020   0.65310   0.44450   1.000
    H522    H    0.65310   0.80290   0.55550   1.000
    H523    H    0.00000   0.75030   0.42410   1.000
    H524    H    0.95510   0.24590   0.31640   1.000
    H525    H    0.13830   0.39280   0.54030   1.000
    H526    H    0.94610   0.75810   0.62090   1.000
    H527    H    0.59600   0.73000   0.24820   1.000
    H528    H    0.50000   0.00000   0.88170   1.000
    H529    H    0.25450   0.39280   0.45970   1.000
    H530    H    0.88480   0.88480   0.50000   1.000
    H531    H    0.10460   0.76020   0.50270   1.000
    H532    H    0.76800   0.09450   0.48150   1.000
    H533    H    0.30290   0.28800   0.70110   1.000
    H534    H    0.13400   0.40400   0.75180   1.000
    H535    H    0.02800   0.66800   0.37210   1.000
    H536    H    0.36830   0.74620   0.56060   1.000
    H537    H    0.85020   0.19710   0.55550   1.000
    H538    H    0.40400   0.27000   0.24820   1.000
    H539    H    0.57480   0.70980   0.33150   1.000
    H540    H    0.89430   0.65230   0.28530   1.000
    H541    H    0.76800   0.67350   0.48150   1.000
    H542    H    0.42520   0.29020   0.33150   1.000
    H543    H    0.62130   0.26270   0.45060   1.000
    H544    H    0.83370   0.76390   0.17170   1.000
    H545    H    0.35860   0.62130   0.54940   1.000
    H546    H    0.72440   0.64900   0.82170   1.000
    H547    H    0.94610   0.18800   0.37910   1.000
    H548    H    0.61230   0.24350   0.50230   1.000
    H549    H    0.81200   0.05390   0.62090   1.000
    H550    H    0.83960   0.00000   0.42330   1.000
    H551    H    0.84750   0.67940   0.41460   1.000
    H552    H    0.22850   0.24320   0.31250   1.000
    H553    H    0.39280   0.13830   0.54030   1.000
    H554    H    0.85020   0.65310   0.55550   1.000
    H555    H    0.73730   0.35860   0.45060   1.000
    H556    H    0.68020   0.27110   0.52330   1.000
    H557    H    0.41470   0.72330   0.48380   1.000
    H558    H    0.63170   0.25380   0.56060   1.000
    H559    H    0.04490   0.29080   0.31640   1.000
    H560    H    0.10570   0.75800   0.71470   1.000
    H561    H    0.50000   0.50000   0.88170   1.000
    H562    H    0.28800   0.98510   0.29890   1.000
    H563    H    0.77150   0.01470   0.31250   1.000
    H564    H    0.27670   0.69140   0.51620   1.000
    H565    H    0.75410   0.70920   0.31640   1.000
    H566    H    0.97200   0.33200   0.62790   1.000
    H567    H    0.91780   0.69960   0.41300   1.000
    H568    H    0.24190   0.18800   0.62090   1.000
    H569    H    0.78180   0.69960   0.41300   1.000
    H570    H    0.69140   0.41470   0.51620   1.000
    H571    H    0.73000   0.59600   0.75180   1.000
    H572    H    0.22850   0.98530   0.31250   1.000
    H573    H    0.62130   0.26270   0.54940   1.000
    H574    H    0.65310   0.85020   0.55550   1.000
    H575    H    0.92460   0.27560   0.17830   1.000
    H576    H    0.00000   0.83960   0.42330   1.000
    H577    H    0.77020   0.05880   0.10910   1.000
    H578    H    0.90550   0.23200   0.48150   1.000
    H579    H    0.00000   0.42240   0.25290   1.000
    H580    H    0.29020   0.42520   0.66850   1.000
    H581    H    0.62130   0.35860   0.54940   1.000
    H582    H    0.94120   0.22980   0.89090   1.000
    H583    H    0.61230   0.36880   0.50230   1.000
    H584    H    0.88450   0.70160   0.24090   1.000
    H585    H    0.35100   0.07540   0.82170   1.000
    H586    H    0.01490   0.30290   0.29890   1.000
    H587    H    0.40400   0.13400   0.75180   1.000
    H588    H    0.75680   0.77150   0.31250   1.000
    H589    H    0.38770   0.75650   0.50230   1.000
    H590    H    0.42520   0.13500   0.66850   1.000
    H591    H    0.02240   0.77900   0.43060   1.000
    H592    H    0.23610   0.06980   0.17170   1.000
    H593    H    0.42520   0.29020   0.66850   1.000
    H594    H    0.94120   0.22980   0.10910   1.000
    H595    H    0.76390   0.93020   0.17170   1.000
    H596    H    0.72890   0.40910   0.47670   1.000
    H597    H    0.74550   0.13830   0.45970   1.000
    H598    H    0.24320   0.01470   0.68750   1.000
    H599    H    0.64900   0.72440   0.82170   1.000
    H600    H    0.28860   0.05880   0.10910   1.000
    H601    H    0.32650   0.23200   0.51850   1.000
    H602    H    0.00000   0.57760   0.74710   1.000
    H603    H    0.40680   0.24650   0.51720   1.000
    H604    H    0.38770   0.63120   0.50230   1.000
    H605    H    0.15250   0.32060   0.58540   1.000
    H606    H    0.77020   0.05880   0.89090   1.000
    H607    H    0.34770   0.10570   0.71470   1.000
    H608    H    0.07540   0.72440   0.17830   1.000
    H609    H    0.83970   0.24650   0.48280   1.000
    H610    H    0.72890   0.31980   0.47670   1.000
    H611    H    0.37870   0.64140   0.54940   1.000
    H612    H    0.23980   0.89540   0.50270   1.000
    H613    H    0.73310   0.32040   0.48260   1.000
    H614    H    0.24970   0.24970   0.42410   1.000
    H615    H    0.74620   0.36830   0.43940   1.000
    H616    H    0.29840   0.18290   0.75910   1.000
    H617    H    0.83190   0.67940   0.41460   1.000
    H618    H    0.88480   0.00000   0.50000   1.000
    H619    H    0.39520   0.25460   0.47400   1.000
    H620    H    0.01470   0.77150   0.68750   1.000
    H621    H    0.68020   0.40910   0.47670   1.000
    H622    H    0.76800   0.67350   0.51850   1.000
    H623    H    0.16040   0.00000   0.42330   1.000
    H624    H    0.27560   0.92460   0.82170   1.000
    H625    H    0.04490   0.75410   0.31640   1.000
    H626    H    0.29980   0.68340   0.57760   1.000
    H627    H    0.13400   0.73000   0.24820   1.000
    H628    H    0.26690   0.67960   0.51740   1.000
    H629    H    0.32060   0.15250   0.41460   1.000
    H630    H    0.48550   0.74275   0.43960   1.000
    H631    H    0.16030   0.75350   0.48280   1.000
    H632    H    0.64000   0.66800   0.62790   1.000
    H633    H    0.98510   0.28800   0.70110   1.000
    H634    H    0.78180   0.08220   0.41300   1.000
    H635    H    0.42240   0.00000   0.25290   1.000
    H636    H    0.92460   0.64900   0.17830   1.000
    H637    H    0.75350   0.16030   0.48280   1.000
    H638    H    0.30040   0.21820   0.41300   1.000
    H639    H    0.42280   0.42280   0.83630   1.000
    H640    H    0.83960   0.83960   0.57670   1.000
    H641    H    0.83190   0.67940   0.58540   1.000
    H642    H    0.08220   0.30040   0.41300   1.000
    H643    H    0.16630   0.23610   0.17170   1.000
    H644    H    0.48550   0.74275   0.56040   1.000
    H645    H    0.34440   0.10460   0.50270   1.000
    H646    H    0.76390   0.83370   0.17170   1.000
    H647    H    0.86500   0.57480   0.66850   1.000
    H648    H    0.05880   0.77020   0.89090   1.000
    H649    H    0.41270   0.67960   0.48260   1.000
    H650    H    0.70160   0.88450   0.75910   1.000
    H651    H    0.13500   0.42520   0.33150   1.000
    H652    H    0.36880   0.61230   0.49770   1.000
    H653    H    0.75660   0.97760   0.56940   1.000
    H654    H    0.62210   0.36830   0.43940   1.000
    H655    H    0.16810   0.32060   0.41460   1.000
    H656    H    0.00000   0.57720   0.83630   1.000
    H657    H    0.38360   0.70020   0.42240   1.000
    H658    H    0.25450   0.86170   0.45970   1.000
    H659    H    0.75680   0.77150   0.68750   1.000
    H660    H    0.80290   0.14980   0.55550   1.000
    H661    H    0.29980   0.68340   0.42240   1.000
    H662    H    0.36880   0.75650   0.50230   1.000
    H663    H    0.59320   0.83970   0.51720   1.000
    H664    H    0.62130   0.35860   0.45060   1.000
    H665    H    0.76800   0.09450   0.51850   1.000
    H666    H    0.75810   0.94610   0.37910   1.000
    H667    H    0.25725   0.74275   0.56040   1.000
    H668    H    0.58730   0.32040   0.48260   1.000
    H669    H    0.69140   0.27670   0.48380   1.000
    H670    H    0.57720   0.00000   0.16370   1.000
    H671    H    0.67350   0.90550   0.48150   1.000
    H672    H    0.57480   0.86500   0.33150   1.000
    H673    H    0.83190   0.15250   0.41460   1.000
    H674    H    0.65230   0.89430   0.71470   1.000
    H675    H    0.65560   0.76020   0.49730   1.000
    H676    H    0.69710   0.98510   0.29890   1.000
    H677    H    0.73000   0.59600   0.24820   1.000
    H678    H    0.21820   0.30040   0.58700   1.000
    H679    H    0.24200   0.34770   0.71470   1.000
    H680    H    0.70020   0.38360   0.57760   1.000
    H681    H    0.05390   0.24190   0.62090   1.000
    H682    H    0.74620   0.37790   0.56060   1.000
    H683    H    0.10570   0.34770   0.71470   1.000
    H684    H    0.71200   0.01490   0.29890   1.000
    H685    H    0.42240   0.00000   0.74710   1.000
    H686    H    0.38360   0.68340   0.57760   1.000
    H687    H    0.27560   0.35100   0.82170   1.000
    H688    H    0.16630   0.23610   0.82830   1.000
    H689    H    0.19710   0.34690   0.44450   1.000
    H690    H    0.29080   0.24590   0.31640   1.000
    H691    H    0.69960   0.78180   0.41300   1.000
    H692    H    0.71140   0.77020   0.10910   1.000
    H693    H    0.81200   0.75810   0.62090   1.000
    H694    H    0.26270   0.64140   0.54940   1.000
    H695    H    0.32040   0.58730   0.48260   1.000
    H696    H    0.29840   0.18290   0.24090   1.000
    H697    H    0.72440   0.07540   0.82170   1.000
    H698    H    0.85020   0.19710   0.44450   1.000
    H699    H    0.32650   0.09450   0.48150   1.000
    H700    H    0.71200   0.01490   0.70110   1.000
    H701    H    0.69710   0.71200   0.29890   1.000
    H702    H    0.32060   0.16810   0.58540   1.000
    H703    H    0.59600   0.73000   0.75180   1.000
    H704    H    0.60480   0.85940   0.52600   1.000
    H705    H    0.86600   0.27000   0.75180   1.000
    H706    H    0.26270   0.62130   0.54940   1.000
    H707    H    0.77020   0.71140   0.89090   1.000
    H708    H    0.24590   0.29080   0.31640   1.000
    H709    H    0.77150   0.75680   0.68750   1.000
    H710    H    0.93020   0.16630   0.17170   1.000
    H711    H    0.36830   0.62210   0.43940   1.000
    H712    H    0.23610   0.16630   0.82830   1.000
    H713    H    0.73730   0.37870   0.45060   1.000
    H714    H    0.41470   0.69140   0.48380   1.000
    H715    H    0.75030   0.00000   0.57590   1.000
    H716    H    0.25380   0.62210   0.43940   1.000
    H717    H    0.11550   0.81710   0.24090   1.000
    H718    H    0.10460   0.34440   0.50270   1.000
    H719    H    0.33200   0.97200   0.62790   1.000
    H720    H    0.84750   0.16810   0.58540   1.000
    H721    H    0.71140   0.94120   0.89090   1.000
    H722    H    0.60720   0.86170   0.54030   1.000
    H723    H    0.70160   0.81710   0.75910   1.000
    H724    H    0.24320   0.01470   0.31250   1.000
    H725    H    0.08220   0.78180   0.41300   1.000
    H726    H    0.00000   0.42240   0.74710   1.000
    H727    H    0.31980   0.72890   0.52330   1.000
    H728    H    0.19710   0.34690   0.55550   1.000
    H729    H    0.28860   0.05880   0.89090   1.000
    H730    H    0.66800   0.64000   0.37210   1.000
    H731    H    0.65560   0.89540   0.49730   1.000
    H732    H    0.34770   0.24200   0.28530   1.000
    H733    H    0.25380   0.62210   0.56060   1.000
    H734    H    0.30290   0.01490   0.70110   1.000
    H735    H    0.75660   0.77900   0.56940   1.000
    H736    H    0.86500   0.29020   0.33150   1.000
    H737    H    0.77150   0.75680   0.31250   1.000
    H738    H    0.26270   0.62130   0.45060   1.000
    H739    H    0.40910   0.72890   0.47670   1.000
    H740    H    0.30860   0.58530   0.48380   1.000
    H741    H    0.09450   0.76800   0.48150   1.000
    H742    H    0.15250   0.83190   0.41460   1.000
    H743    H    0.97760   0.75660   0.43060   1.000
    H744    H    0.86500   0.57480   0.33150   1.000
    C1      C    0.32800   0.00650   0.60570   1.000
    C2      C    0.26700   0.04600   0.40100   1.000
    C3      C    0.32800   0.00650   0.39430   1.000
    C4      C    0.28120   0.47110   0.38964   1.000
    C5      C    0.99800   0.26800   0.67900   1.000
    C6      C    0.37600   0.64400   0.52600   1.000
    C7      C    0.62600   0.29000   0.54500   1.000
    C8      C    0.32760   0.09380   0.82310   1.000
    C9      C    0.88900   0.14550   0.13390   1.000
    C10     C    0.20660   0.29060   0.13590   1.000
    C11     C    0.64400   0.26800   0.52600   1.000
    C12     C    0.14620   0.66220   0.41450   1.000
    C13     C    0.00000   0.23140   0.45510   1.000
    C14     C    0.00000   0.41170   0.67890   1.000
    C15     C    0.76710   0.14310   0.50880   1.000
    C16     C    0.32760   0.23380   0.17690   1.000
    C17     C    0.17830   0.00000   0.54540   1.000
    C18     C    0.84860   0.00000   0.50000   1.000
    C19     C    0.13680   0.36960   0.25980   1.000
    C20     C    0.09830   0.21400   0.09060   1.000
    C21     C    0.14790   0.88850   0.82690   1.000
    C22     C    0.14550   0.25650   0.86610   1.000
    C23     C    0.14470   0.81900   0.56060   1.000
    C24     C    0.21400   0.11570   0.09060   1.000
    C25     C    0.52890   0.81010   0.38964   1.000
    C26     C    0.43740   0.26480   0.65390   1.000
    C27     C    0.84230   0.70360   0.78580   1.000
    C28     C    0.88430   0.78600   0.09060   1.000
    C29     C    0.82170   0.82170   0.45460   1.000
    C30     C    0.36960   0.23280   0.25980   1.000
    C31     C    0.70360   0.86130   0.78580   1.000
    C32     C    0.85690   0.23290   0.49120   1.000
    C33     C    0.88850   0.14790   0.17310   1.000
    C34     C    0.36960   0.23280   0.74020   1.000
    C35     C    0.48400   0.14620   0.58550   1.000
    C36     C    0.00200   0.27000   0.32100   1.000
    C37     C    0.80020   0.66950   0.78390   1.000
    C38     C    0.33050   0.13070   0.21610   1.000
    C39     C    0.26800   0.99800   0.32100   1.000
    C40     C    0.37600   0.23290   0.50880   1.000
    C41     C    0.73520   0.17260   0.34610   1.000
    C42     C    0.73520   0.56260   0.65390   1.000
    C43     C    0.91600   0.70940   0.86410   1.000
    C44     C    0.70940   0.79340   0.13590   1.000
    C45     C    0.17260   0.43740   0.65390   1.000
    C46     C    0.51050   0.75525   0.58920   1.000
    C47     C    0.65900   0.27900   0.50220   1.000
    C48     C    0.63040   0.86320   0.74020   1.000
    C49     C    0.67200   0.67850   0.39430   1.000
    C50     C    0.37600   0.64400   0.47400   1.000
    C51     C    0.71880   0.18990   0.38964   1.000
    C52     C    0.41170   0.00000   0.67890   1.000
    C53     C    0.09380   0.76620   0.17690   1.000
    C54     C    0.13600   0.78000   0.47610   1.000
    C55     C    0.66400   0.37400   0.54500   1.000
    C56     C    0.54630   0.54630   0.76540   1.000
    C57     C    0.26480   0.82740   0.65390   1.000
    C58     C    0.00000   0.50000   0.74030   1.000
    C59     C    0.42150   0.21075   0.67620   1.000
    C60     C    0.45430   0.00000   0.81860   1.000
    C61     C    0.72100   0.34100   0.49780   1.000
    C62     C    0.54570   0.54570   0.18140   1.000
    C63     C    0.14470   0.32570   0.56060   1.000
    C64     C    0.41170   0.00000   0.32110   1.000
    C65     C    0.79340   0.08400   0.86410   1.000
    C66     C    0.37600   0.23290   0.49120   1.000
    C67     C    0.76620   0.09380   0.82310   1.000
    C68     C    0.23290   0.85690   0.50880   1.000
    C69     C    0.91600   0.20660   0.13590   1.000
    C70     C    0.29000   0.62600   0.45500   1.000
    C71     C    0.62400   0.26800   0.47400   1.000
    C72     C    0.90620   0.23380   0.82310   1.000
    C73     C    0.22100   0.26700   0.40100   1.000
    C74     C    0.67200   0.67850   0.60570   1.000
    C75     C    0.19980   0.86930   0.78390   1.000
    C76     C    0.13600   0.78000   0.52390   1.000
    C77     C    0.00000   0.54570   0.18140   1.000
    C78     C    0.26480   0.43740   0.65390   1.000
    C79     C    0.56260   0.73520   0.65390   1.000
    C80     C    0.86400   0.22000   0.52390   1.000
    C81     C    0.21075   0.42150   0.32380   1.000
    C82     C    0.85380   0.33780   0.58550   1.000
    C83     C    0.86930   0.19980   0.21610   1.000
    C84     C    0.26480   0.82740   0.34610   1.000
    C85     C    0.13870   0.29640   0.21420   1.000
    C86     C    0.62400   0.26800   0.52600   1.000
    C87     C    0.14470   0.81900   0.43940   1.000
    C88     C    0.23140   0.23140   0.45510   1.000
    C89     C    0.52890   0.71880   0.38964   1.000
    C90     C    0.73300   0.77900   0.59900   1.000
    C91     C    0.18990   0.71880   0.61036   1.000
    C92     C    0.29060   0.08400   0.86410   1.000
    C93     C    0.72100   0.34100   0.50220   1.000
    C94     C    0.33050   0.13070   0.78390   1.000
    C95     C    0.78000   0.64400   0.47610   1.000
    C96     C    0.04600   0.77900   0.40100   1.000
    C97     C    0.86130   0.15770   0.21420   1.000
    C98     C    0.00000   0.41170   0.32110   1.000
    C99     C    0.56260   0.73520   0.34610   1.000
    C100    C    0.78600   0.88430   0.09060   1.000
    C101    C    0.37600   0.73200   0.52600   1.000
    C102    C    0.23280   0.86320   0.25980   1.000
    C103    C    0.22100   0.95400   0.59900   1.000
    C104    C    0.45370   0.45370   0.76540   1.000
    C105    C    0.11570   0.90170   0.90940   1.000
    C106    C    0.26800   0.62400   0.52600   1.000
    C107    C    0.29060   0.08400   0.13590   1.000
    C108    C    0.17830   0.17830   0.54540   1.000
    C109    C    0.76620   0.09380   0.17690   1.000
    C110    C    0.15770   0.29640   0.78580   1.000
    C111    C    0.27900   0.65900   0.50220   1.000
    C112    C    0.13070   0.33050   0.78390   1.000
    C113    C    0.23140   0.00000   0.45510   1.000
    C114    C    0.48400   0.14620   0.41450   1.000
    C115    C    0.24475   0.48950   0.58920   1.000
    C116    C    0.70360   0.84230   0.21420   1.000
    C117    C    0.00000   0.45370   0.76540   1.000
    C118    C    0.70940   0.91600   0.86410   1.000
    C119    C    0.14620   0.66220   0.58550   1.000
    C120    C    0.14790   0.25940   0.82690   1.000
    C121    C    0.08400   0.29060   0.86410   1.000
    C122    C    0.19980   0.33050   0.21610   1.000
    C123    C    0.85210   0.11150   0.82690   1.000
    C124    C    0.86400   0.22000   0.47610   1.000
    C125    C    0.73200   0.35600   0.47400   1.000
    C126    C    0.29060   0.20660   0.13590   1.000
    C127    C    0.22000   0.35600   0.47610   1.000
    C128    C    0.88900   0.14550   0.86610   1.000
    C129    C    0.17830   0.00000   0.45460   1.000
    C130    C    0.11100   0.25650   0.13390   1.000
    C131    C    0.08400   0.29060   0.13590   1.000
    C132    C    0.13870   0.29640   0.78580   1.000
    C133    C    0.99350   0.32150   0.60570   1.000
    C134    C    0.50000   0.00000   0.84570   1.000
    C135    C    0.15770   0.86130   0.21420   1.000
    C136    C    0.54570   0.00000   0.18140   1.000
    C137    C    0.66220   0.14620   0.58550   1.000
    C138    C    0.67240   0.76620   0.82310   1.000
    C139    C    0.58830   0.58830   0.32110   1.000
    C140    C    0.66220   0.51600   0.58550   1.000
    C141    C    0.65900   0.38000   0.49780   1.000
    C142    C    0.15140   0.00000   0.50000   1.000
    C143    C    0.76710   0.14310   0.49120   1.000
    C144    C    0.00000   0.58830   0.67890   1.000
    C145    C    0.47110   0.28120   0.38964   1.000
    C146    C    0.73200   0.73000   0.32100   1.000
    C147    C    0.00000   0.45430   0.18140   1.000
    C148    C    0.13870   0.84230   0.78580   1.000
    C149    C    0.74230   0.74230   0.50000   1.000
    C150    C    0.66950   0.80020   0.78390   1.000
    C151    C    0.32760   0.23380   0.82310   1.000
    C152    C    0.00000   0.50000   0.15430   1.000
    C153    C    0.78925   0.57850   0.32380   1.000
    C154    C    0.22000   0.35600   0.52390   1.000
    C155    C    0.67850   0.67200   0.60570   1.000
    C156    C    0.00000   0.50000   0.31690   1.000
    C157    C    0.81900   0.67430   0.56060   1.000
    C158    C    0.84860   0.84860   0.50000   1.000
    C159    C    0.54630   0.00000   0.76540   1.000
    C160    C    0.74060   0.85210   0.82690   1.000
    C161    C    0.36960   0.13680   0.74020   1.000
    C162    C    0.32150   0.99350   0.39430   1.000
    C163    C    0.20660   0.91600   0.86410   1.000
    C164    C    0.99350   0.32150   0.39430   1.000
    C165    C    0.08400   0.79340   0.13590   1.000
    C166    C    0.73200   0.00200   0.32100   1.000
    C167    C    0.99800   0.73000   0.32100   1.000
    C168    C    0.32150   0.32800   0.60570   1.000
    C169    C    0.64400   0.78000   0.52390   1.000
    C170    C    0.31570   0.00000   0.50000   1.000
    C171    C    0.48950   0.24475   0.41080   1.000
    C172    C    0.73000   0.73200   0.67900   1.000
    C173    C    0.34100   0.72100   0.49780   1.000
    C174    C    0.91600   0.70940   0.13590   1.000
    C175    C    0.26800   0.64400   0.47400   1.000
    C176    C    0.00000   0.17830   0.45460   1.000
    C177    C    0.22000   0.86400   0.52390   1.000
    C178    C    0.73520   0.17260   0.65390   1.000
    C179    C    0.00000   0.54570   0.81860   1.000
    C180    C    0.74350   0.88900   0.86610   1.000
    C181    C    0.90620   0.67240   0.17690   1.000
    C182    C    0.50000   0.50000   0.84570   1.000
    C183    C    0.50000   0.00000   0.15430   1.000
    C184    C    0.74350   0.85450   0.86610   1.000
    C185    C    0.25650   0.11100   0.13390   1.000
    C186    C    0.90170   0.78600   0.90940   1.000
    C187    C    0.13600   0.35600   0.47610   1.000
    C188    C    0.11100   0.85450   0.13390   1.000
    C189    C    0.14550   0.88900   0.13390   1.000
    C190    C    0.85450   0.74350   0.86610   1.000
    C191    C    0.62400   0.35600   0.52600   1.000
    C192    C    0.25650   0.11100   0.86610   1.000
    C193    C    0.70940   0.79340   0.86410   1.000
    C194    C    0.18100   0.32570   0.43940   1.000
    C195    C    0.74060   0.88850   0.82690   1.000
    C196    C    0.51600   0.85380   0.58550   1.000
    C197    C    0.85690   0.62400   0.50880   1.000
    C198    C    0.23380   0.32760   0.82310   1.000
    C199    C    0.74350   0.85450   0.13390   1.000
    C200    C    0.29000   0.66400   0.45500   1.000
    C201    C    0.38000   0.72100   0.50220   1.000
    C202    C    0.21400   0.11570   0.90940   1.000
    C203    C    0.00000   0.50000   0.84570   1.000
    C204    C    0.71000   0.37400   0.45500   1.000
    C205    C    0.70360   0.84230   0.78580   1.000
    C206    C    0.09380   0.76620   0.82310   1.000
    C207    C    0.56260   0.82740   0.34610   1.000
    C208    C    0.13870   0.84230   0.21420   1.000
    C209    C    0.62400   0.85690   0.50880   1.000
    C210    C    0.85380   0.51600   0.41450   1.000
    C211    C    0.76620   0.67240   0.17690   1.000
    C212    C    0.00650   0.32800   0.60570   1.000
    C213    C    0.48950   0.24475   0.58920   1.000
    C214    C    0.26800   0.27000   0.67900   1.000
    C215    C    0.37400   0.66400   0.54500   1.000
    C216    C    0.50000   0.50000   0.31690   1.000
    C217    C    0.81010   0.28120   0.61036   1.000
    C218    C    0.23380   0.90620   0.17690   1.000
    C219    C    0.35600   0.13600   0.52390   1.000
    C220    C    0.28120   0.81010   0.61036   1.000
    C221    C    0.18100   0.32570   0.56060   1.000
    C222    C    0.00000   0.76860   0.54490   1.000
    C223    C    0.51600   0.85380   0.41450   1.000
    C224    C    0.76710   0.62400   0.49120   1.000
    C225    C    0.14310   0.37600   0.50880   1.000
    C226    C    0.86400   0.64400   0.47610   1.000
    C227    C    0.15770   0.86130   0.78580   1.000
    C228    C    0.00650   0.32800   0.39430   1.000
    C229    C    0.62400   0.76710   0.50880   1.000
    C230    C    0.36960   0.13680   0.25980   1.000
    C231    C    0.52890   0.71880   0.61036   1.000
    C232    C    0.62600   0.33600   0.45500   1.000
    C233    C    0.11100   0.25650   0.86610   1.000
    C234    C    0.86400   0.64400   0.52390   1.000
    C235    C    0.00000   0.74230   0.50000   1.000
    C236    C    0.25940   0.11150   0.17310   1.000
    C237    C    0.64400   0.37600   0.52600   1.000
    C238    C    0.50000   0.50000   0.68310   1.000
    C239    C    0.85210   0.74060   0.82690   1.000
    C240    C    0.68430   0.00000   0.50000   1.000
    C241    C    0.64400   0.86400   0.47610   1.000
    C242    C    0.29000   0.62600   0.54500   1.000
    C243    C    0.11150   0.85210   0.82690   1.000
    C244    C    0.71880   0.52890   0.38964   1.000
    C245    C    0.26700   0.04600   0.59900   1.000
    C246    C    0.95400   0.73300   0.40100   1.000
    C247    C    0.34100   0.62000   0.49780   1.000
    C248    C    0.32570   0.14470   0.43940   1.000
    C249    C    0.72100   0.38000   0.50220   1.000
    C250    C    0.76860   0.76860   0.45510   1.000
    C251    C    0.64400   0.26800   0.47400   1.000
    C252    C    0.48400   0.33780   0.58550   1.000
    C253    C    0.88900   0.74350   0.13390   1.000
    C254    C    0.04600   0.26700   0.40100   1.000
    C255    C    0.88850   0.74060   0.82690   1.000
    C256    C    0.85530   0.67430   0.56060   1.000
    C257    C    0.71000   0.33600   0.54500   1.000
    C258    C    0.18990   0.71880   0.38964   1.000
    C259    C    0.81010   0.52890   0.61036   1.000
    C260    C    0.35600   0.62400   0.47400   1.000
    C261    C    0.15770   0.29640   0.21420   1.000
    C262    C    0.76860   0.76860   0.54490   1.000
    C263    C    0.14310   0.76710   0.49120   1.000
    C264    C    0.81010   0.52890   0.38964   1.000
    C265    C    0.00200   0.73200   0.67900   1.000
    C266    C    0.95400   0.22100   0.59900   1.000
    C267    C    0.99800   0.73000   0.67900   1.000
    C268    C    0.25650   0.14550   0.86610   1.000
    C269    C    0.14550   0.25650   0.13390   1.000
    C270    C    0.74230   0.00000   0.50000   1.000
    C271    C    0.25940   0.14790   0.82690   1.000
    C272    C    0.13680   0.36960   0.74020   1.000
    C273    C    0.38000   0.72100   0.49780   1.000
    C274    C    0.65900   0.38000   0.50220   1.000
    C275    C    0.75525   0.24475   0.41080   1.000
    C276    C    0.32570   0.14470   0.56060   1.000
    C277    C    0.79340   0.08400   0.13590   1.000
    C278    C    0.85210   0.74060   0.17310   1.000
    C279    C    0.50000   0.50000   0.25970   1.000
    C280    C    0.37400   0.71000   0.54500   1.000
    C281    C    0.23290   0.37600   0.50880   1.000
    C282    C    0.85530   0.67430   0.43940   1.000
    C283    C    0.80020   0.13070   0.21610   1.000
    C284    C    0.11150   0.25940   0.17310   1.000
    C285    C    0.75525   0.51050   0.58920   1.000
    C286    C    0.76860   0.00000   0.45510   1.000
    C287    C    0.19980   0.33050   0.78390   1.000
    C288    C    0.77900   0.73300   0.40100   1.000
    C289    C    0.22100   0.26700   0.59900   1.000
    C290    C    0.66950   0.80020   0.21610   1.000
    C291    C    0.25940   0.14790   0.17310   1.000
    C292    C    0.35600   0.22000   0.47610   1.000
    C293    C    0.80020   0.13070   0.78390   1.000
    C294    C    0.13070   0.80020   0.21610   1.000
    C295    C    0.32800   0.32150   0.39430   1.000
    C296    C    0.52890   0.81010   0.61036   1.000
    C297    C    0.85450   0.11100   0.86610   1.000
    C298    C    0.00650   0.67850   0.39430   1.000
    C299    C    0.67430   0.81900   0.43940   1.000
    C300    C    0.73200   0.35600   0.52600   1.000
    C301    C    0.66220   0.51600   0.41450   1.000
    C302    C    0.79340   0.70940   0.13590   1.000
    C303    C    0.67430   0.85530   0.56060   1.000
    C304    C    0.00000   0.54630   0.76540   1.000
    C305    C    0.00000   0.84860   0.50000   1.000
    C306    C    0.71880   0.18990   0.61036   1.000
    C307    C    0.76720   0.63040   0.25980   1.000
    C308    C    0.67240   0.90620   0.82310   1.000
    C309    C    0.21075   0.42150   0.67620   1.000
    C310    C    0.62000   0.27900   0.49780   1.000
    C311    C    0.63040   0.86320   0.25980   1.000
    C312    C    0.09830   0.88430   0.09060   1.000
    C313    C    0.86320   0.63040   0.25980   1.000
    C314    C    0.77900   0.04600   0.40100   1.000
    C315    C    0.32570   0.18100   0.43940   1.000
    C316    C    0.00000   0.17830   0.54540   1.000
    C317    C    0.23380   0.32760   0.17690   1.000
    C318    C    0.26800   0.64400   0.52600   1.000
    C319    C    0.62400   0.76710   0.49120   1.000
    C320    C    0.51050   0.75525   0.41080   1.000
    C321    C    0.66400   0.37400   0.45500   1.000
    C322    C    0.86320   0.23280   0.25980   1.000
    C323    C    0.26800   0.27000   0.32100   1.000
    C324    C    0.04600   0.26700   0.59900   1.000
    C325    C    0.14790   0.25940   0.17310   1.000
    C326    C    0.17260   0.73520   0.34610   1.000
    C327    C    0.11570   0.90170   0.09060   1.000
    C328    C    0.88430   0.09830   0.90940   1.000
    C329    C    0.09380   0.32760   0.82310   1.000
    C330    C    0.32570   0.18100   0.56060   1.000
    C331    C    0.35600   0.22000   0.52390   1.000
    C332    C    0.29640   0.15770   0.21420   1.000
    C333    C    0.26700   0.22100   0.40100   1.000
    C334    C    0.25770   0.00000   0.50000   1.000
    C335    C    0.56260   0.82740   0.65390   1.000
    C336    C    0.67240   0.90620   0.17690   1.000
    C337    C    0.67430   0.85530   0.43940   1.000
    C338    C    0.86130   0.70360   0.21420   1.000
    C339    C    0.66400   0.29000   0.45500   1.000
    C340    C    0.67850   0.67200   0.39430   1.000
    C341    C    0.00000   0.23140   0.54490   1.000
    C342    C    0.23290   0.37600   0.49120   1.000
    C343    C    0.26700   0.22100   0.59900   1.000
    C344    C    0.11570   0.21400   0.90940   1.000
    C345    C    0.64400   0.37600   0.47400   1.000
    C346    C    0.14470   0.32570   0.43940   1.000
    C347    C    0.90170   0.11570   0.09060   1.000
    C348    C    0.33780   0.85380   0.41450   1.000
    C349    C    0.20660   0.91600   0.13590   1.000
    C350    C    0.85380   0.33780   0.41450   1.000
    C351    C    0.21075   0.78925   0.32380   1.000
    C352    C    0.14310   0.76710   0.50880   1.000
    C353    C    0.58830   0.00000   0.32110   1.000
    C354    C    0.26800   0.99800   0.67900   1.000
    C355    C    0.28120   0.47110   0.61036   1.000
    C356    C    0.58830   0.58830   0.67890   1.000
    C357    C    0.73200   0.37600   0.52600   1.000
    C358    C    0.33050   0.19980   0.21610   1.000
    C359    C    0.73000   0.99800   0.67900   1.000
    C360    C    0.43740   0.17260   0.34610   1.000
    C361    C    0.11150   0.25940   0.82690   1.000
    C362    C    0.78000   0.64400   0.52390   1.000
    C363    C    0.62000   0.34100   0.49780   1.000
    C364    C    0.76620   0.67240   0.82310   1.000
    C365    C    0.32760   0.09380   0.17690   1.000
    C366    C    0.23380   0.90620   0.82310   1.000
    C367    C    0.68430   0.68430   0.50000   1.000
    C368    C    0.73000   0.73200   0.32100   1.000
    C369    C    0.67850   0.00650   0.60570   1.000
    C370    C    0.90170   0.78600   0.09060   1.000
    C371    C    0.63040   0.76720   0.25980   1.000
    C372    C    0.37600   0.14310   0.49120   1.000
    C373    C    0.67200   0.99350   0.39430   1.000
    C374    C    0.47110   0.18990   0.38964   1.000
    C375    C    0.33050   0.19980   0.78390   1.000
    C376    C    0.34100   0.62000   0.50220   1.000
    C377    C    0.62000   0.34100   0.50220   1.000
    C378    C    0.27000   0.00200   0.32100   1.000
    C379    C    0.85450   0.11100   0.13390   1.000
    C380    C    0.50000   0.00000   0.68310   1.000
    C381    C    0.73000   0.99800   0.32100   1.000
    C382    C    0.85380   0.51600   0.58550   1.000
    C383    C    0.13070   0.33050   0.21610   1.000
    C384    C    0.23280   0.36960   0.74020   1.000
    C385    C    0.27900   0.65900   0.49780   1.000
    C386    C    0.23140   0.00000   0.54490   1.000
    C387    C    0.37600   0.14310   0.50880   1.000
    C388    C    0.85210   0.11150   0.17310   1.000
    C389    C    0.82170   0.00000   0.54540   1.000
    C390    C    0.62400   0.85690   0.49120   1.000
    C391    C    0.00000   0.45370   0.23460   1.000
    C392    C    0.86130   0.15770   0.78580   1.000
    C393    C    0.76720   0.13680   0.74020   1.000
    C394    C    0.54630   0.00000   0.23460   1.000
    C395    C    0.82740   0.26480   0.34610   1.000
    C396    C    0.38000   0.65900   0.49780   1.000
    C397    C    0.00000   0.31570   0.50000   1.000
    C398    C    0.00000   0.58830   0.32110   1.000
    C399    C    0.77900   0.04600   0.59900   1.000
    C400    C    0.29640   0.13870   0.21420   1.000
    C401    C    0.85690   0.62400   0.49120   1.000
    C402    C    0.32800   0.32150   0.60570   1.000
    C403    C    0.00650   0.67850   0.60570   1.000
    C404    C    0.21400   0.09830   0.09060   1.000
    C405    C    0.00000   0.82170   0.45460   1.000
    C406    C    0.80020   0.66950   0.21610   1.000
    C407    C    0.65900   0.27900   0.49780   1.000
    C408    C    0.78600   0.90170   0.90940   1.000
    C409    C    0.66950   0.86930   0.78390   1.000
    C410    C    0.00000   0.76860   0.45510   1.000
    C411    C    0.64400   0.78000   0.47610   1.000
    C412    C    0.24475   0.75525   0.41080   1.000
    C413    C    0.50000   0.50000   0.74030   1.000
    C414    C    0.28120   0.81010   0.38964   1.000
    C415    C    0.15140   0.15140   0.50000   1.000
    C416    C    0.35600   0.62400   0.52600   1.000
    C417    C    0.81010   0.28120   0.38964   1.000
    C418    C    0.35600   0.13600   0.47610   1.000
    C419    C    0.71000   0.33600   0.45500   1.000
    C420    C    0.11150   0.85210   0.17310   1.000
    C421    C    0.18100   0.85530   0.43940   1.000
    C422    C    0.99350   0.67200   0.39430   1.000
    C423    C    0.86930   0.19980   0.78390   1.000
    C424    C    0.23140   0.23140   0.54490   1.000
    C425    C    0.23280   0.36960   0.25980   1.000
    C426    C    0.18990   0.47110   0.61036   1.000
    C427    C    0.88430   0.09830   0.09060   1.000
    C428    C    0.54570   0.54570   0.81860   1.000
    C429    C    0.25940   0.11150   0.82690   1.000
    C430    C    0.37400   0.71000   0.45500   1.000
    C431    C    0.50000   0.00000   0.31690   1.000
    C432    C    0.62400   0.35600   0.47400   1.000
    C433    C    0.17260   0.73520   0.65390   1.000
    C434    C    0.88430   0.78600   0.90940   1.000
    C435    C    0.82740   0.56260   0.34610   1.000
    C436    C    0.95400   0.73300   0.59900   1.000
    C437    C    0.18100   0.85530   0.56060   1.000
    C438    C    0.33600   0.71000   0.54500   1.000
    C439    C    0.82740   0.26480   0.65390   1.000
    C440    C    0.33780   0.48400   0.58550   1.000
    C441    C    0.00000   0.50000   0.25970   1.000
    C442    C    0.81900   0.14470   0.56060   1.000
    C443    C    0.33780   0.48400   0.41450   1.000
    C444    C    0.54630   0.54630   0.23460   1.000
    C445    C    0.62000   0.27900   0.50220   1.000
    C446    C    0.09380   0.32760   0.17690   1.000
    C447    C    0.00200   0.73200   0.32100   1.000
    C448    C    0.45430   0.45430   0.18140   1.000
    C449    C    0.00000   0.54630   0.23460   1.000
    C450    C    0.45370   0.45370   0.23460   1.000
    C451    C    0.00000   0.68430   0.50000   1.000
    C452    C    0.78000   0.13600   0.47610   1.000
    C453    C    0.72100   0.38000   0.49780   1.000
    C454    C    0.24475   0.48950   0.41080   1.000
    C455    C    0.86130   0.70360   0.78580   1.000
    C456    C    0.45370   0.00000   0.76540   1.000
    C457    C    0.09830   0.21400   0.90940   1.000
    C458    C    0.95400   0.22100   0.40100   1.000
    C459    C    0.37400   0.66400   0.45500   1.000
    C460    C    0.67240   0.76620   0.17690   1.000
    C461    C    0.17260   0.43740   0.34610   1.000
    C462    C    0.81900   0.14470   0.43940   1.000
    C463    C    0.32150   0.99350   0.60570   1.000
    C464    C    0.76710   0.62400   0.50880   1.000
    C465    C    0.70360   0.86130   0.21420   1.000
    C466    C    0.33600   0.71000   0.45500   1.000
    C467    C    0.51600   0.66220   0.58550   1.000
    C468    C    0.43740   0.17260   0.65390   1.000
    C469    C    0.34100   0.72100   0.50220   1.000
    C470    C    0.84230   0.70360   0.21420   1.000
    C471    C    0.00000   0.45430   0.81860   1.000
    C472    C    0.84230   0.13870   0.78580   1.000
    C473    C    0.31570   0.31570   0.50000   1.000
    C474    C    0.73200   0.73000   0.67900   1.000
    C475    C    0.48400   0.33780   0.41450   1.000
    C476    C    0.23290   0.85690   0.49120   1.000
    C477    C    0.78925   0.21075   0.32380   1.000
    C478    C    0.29000   0.66400   0.54500   1.000
    C479    C    0.33600   0.62600   0.45500   1.000
    C480    C    0.86930   0.66950   0.21610   1.000
    C481    C    0.13600   0.35600   0.52390   1.000
    C482    C    0.99800   0.26800   0.32100   1.000
    C483    C    0.76720   0.63040   0.74020   1.000
    C484    C    0.45430   0.45430   0.81860   1.000
    C485    C    0.73300   0.95400   0.40100   1.000
    C486    C    0.23280   0.86320   0.74020   1.000
    C487    C    0.82170   0.82170   0.54540   1.000
    C488    C    0.27000   0.00200   0.67900   1.000
    C489    C    0.84230   0.13870   0.21420   1.000
    C490    C    0.29640   0.15770   0.78580   1.000
    C491    C    0.62600   0.29000   0.45500   1.000
    C492    C    0.76720   0.13680   0.25980   1.000
    C493    C    0.43740   0.26480   0.34610   1.000
    C494    C    0.45370   0.00000   0.23460   1.000
    C495    C    0.74350   0.88900   0.13390   1.000
    C496    C    0.88850   0.14790   0.82690   1.000
    C497    C    0.73200   0.37600   0.47400   1.000
    C498    C    0.04600   0.77900   0.59900   1.000
    C499    C    0.85530   0.18100   0.43940   1.000
    C500    C    0.86320   0.23280   0.74020   1.000
    C501    C    0.78925   0.21075   0.67620   1.000
    C502    C    0.33600   0.62600   0.54500   1.000
    C503    C    0.50000   0.50000   0.15430   1.000
    C504    C    0.45430   0.00000   0.18140   1.000
    C505    C    0.38000   0.65900   0.50220   1.000
    C506    C    0.14550   0.88900   0.86610   1.000
    C507    C    0.17830   0.17830   0.45460   1.000
    C508    C    0.19980   0.86930   0.21610   1.000
    C509    C    0.13070   0.80020   0.78390   1.000
    C510    C    0.79340   0.70940   0.86410   1.000
    C511    C    0.82740   0.56260   0.65390   1.000
    C512    C    0.75525   0.24475   0.58920   1.000
    C513    C    0.78000   0.13600   0.52390   1.000
    C514    C    0.78925   0.57850   0.67620   1.000
    C515    C    0.24475   0.75525   0.58920   1.000
    C516    C    0.50000   0.00000   0.74030   1.000
    C517    C    0.64400   0.86400   0.52390   1.000
    C518    C    0.13680   0.76720   0.74020   1.000
    C519    C    0.20660   0.29060   0.86410   1.000
    C520    C    0.26480   0.43740   0.34610   1.000
    C521    C    0.27000   0.26800   0.32100   1.000
    C522    C    0.27900   0.62000   0.49780   1.000
    C523    C    0.81900   0.67430   0.43940   1.000
    C524    C    0.82170   0.00000   0.45460   1.000
    C525    C    0.00000   0.50000   0.68310   1.000
    C526    C    0.00000   0.15140   0.50000   1.000
    C527    C    0.73520   0.56260   0.34610   1.000
    C528    C    0.08400   0.79340   0.86410   1.000
    C529    C    0.11570   0.21400   0.09060   1.000
    C530    C    0.25650   0.14550   0.13390   1.000
    C531    C    0.67200   0.99350   0.60570   1.000
    C532    C    0.22000   0.86400   0.47610   1.000
    C533    C    0.85530   0.18100   0.56060   1.000
    C534    C    0.90170   0.11570   0.90940   1.000
    C535    C    0.29060   0.20660   0.86410   1.000
    C536    C    0.76860   0.00000   0.54490   1.000
    C537    C    0.62600   0.33600   0.54500   1.000
    C538    C    0.54570   0.00000   0.81860   1.000
    C539    C    0.78600   0.90170   0.09060   1.000
    C540    C    0.85690   0.23290   0.50880   1.000
    C541    C    0.22100   0.95400   0.40100   1.000
    C542    C    0.42150   0.21075   0.32380   1.000
    C543    C    0.11100   0.85450   0.86610   1.000
    C544    C    0.88850   0.74060   0.17310   1.000
    C545    C    0.14310   0.37600   0.49120   1.000
    C546    C    0.73300   0.77900   0.40100   1.000
    C547    C    0.67850   0.00650   0.39430   1.000
    C548    C    0.75525   0.51050   0.41080   1.000
    C549    C    0.41170   0.41170   0.67890   1.000
    C550    C    0.14620   0.48400   0.58550   1.000
    C551    C    0.85450   0.74350   0.13390   1.000
    C552    C    0.73300   0.95400   0.59900   1.000
    C553    C    0.27000   0.26800   0.67900   1.000
    C554    C    0.14790   0.88850   0.17310   1.000
    C555    C    0.70940   0.91600   0.13590   1.000
    C556    C    0.37600   0.73200   0.47400   1.000
    C557    C    0.33780   0.85380   0.58550   1.000
    C558    C    0.63040   0.76720   0.74020   1.000
    C559    C    0.47110   0.18990   0.61036   1.000
    C560    C    0.32150   0.32800   0.39430   1.000
    C561    C    0.50000   0.00000   0.25970   1.000
    C562    C    0.66400   0.29000   0.54500   1.000
    C563    C    0.29640   0.13870   0.78580   1.000
    C564    C    0.51600   0.66220   0.41450   1.000
    C565    C    0.90620   0.67240   0.82310   1.000
    C566    C    0.66950   0.86930   0.21610   1.000
    C567    C    0.18990   0.47110   0.38964   1.000
    C568    C    0.00000   0.82170   0.54540   1.000
    C569    C    0.99350   0.67200   0.60570   1.000
    C570    C    0.27900   0.62000   0.50220   1.000
    C571    C    0.88900   0.74350   0.86610   1.000
    C572    C    0.86320   0.63040   0.74020   1.000
    C573    C    0.73200   0.00200   0.67900   1.000
    C574    C    0.21400   0.09830   0.90940   1.000
    C575    C    0.41170   0.41170   0.32110   1.000
    C576    C    0.13680   0.76720   0.25980   1.000
    C577    C    0.57850   0.78925   0.32380   1.000
    C578    C    0.86930   0.66950   0.78390   1.000
    C579    C    0.57850   0.78925   0.67620   1.000
    C580    C    0.47110   0.28120   0.61036   1.000
    C581    C    0.09830   0.88430   0.90940   1.000
    C582    C    0.58830   0.00000   0.67890   1.000
    C583    C    0.26800   0.62400   0.47400   1.000
    C584    C    0.91600   0.20660   0.86410   1.000
    C585    C    0.77900   0.73300   0.59900   1.000
    C586    C    0.90620   0.23380   0.17690   1.000
    C587    C    0.74060   0.85210   0.17310   1.000
    C588    C    0.71000   0.37400   0.54500   1.000
    C589    C    0.78600   0.88430   0.90940   1.000
    C590    C    0.25770   0.25770   0.50000   1.000
    C591    C    0.35600   0.73200   0.52600   1.000
    C592    C    0.35600   0.73200   0.47400   1.000
    C593    C    0.67430   0.81900   0.56060   1.000
    C594    C    0.14620   0.48400   0.41450   1.000
    C595    C    0.74060   0.88850   0.17310   1.000
    C596    C    0.66220   0.14620   0.41450   1.000
    C597    C    0.00000   0.25770   0.50000   1.000
    C598    C    0.00200   0.27000   0.67900   1.000
    C599    C    0.71880   0.52890   0.61036   1.000
    C600    C    0.21075   0.78925   0.67620   1.000
    N1      N    0.81960   0.64940   0.51740   1.000
    N2      N    0.32900   0.67270   0.47840   1.000
    N3      N    0.98900   0.27600   0.37370   1.000
    N4      N    0.71300   0.72400   0.62630   1.000
    N5      N    0.72400   0.01100   0.62630   1.000
    N6      N    0.01100   0.72400   0.37370   1.000
    N7      N    0.34370   0.67270   0.47840   1.000
    N8      N    0.34370   0.67270   0.52160   1.000
    N9      N    0.72400   0.71300   0.62630   1.000
    N10     N    0.17020   0.81960   0.51740   1.000
    N11     N    0.82980   0.18040   0.51740   1.000
    N12     N    0.67100   0.34370   0.47840   1.000
    N13     N    0.35060   0.18040   0.51740   1.000
    N14     N    0.64940   0.82980   0.51740   1.000
    N15     N    0.67100   0.32730   0.52160   1.000
    N16     N    0.35060   0.17020   0.51740   1.000
    N17     N    0.32730   0.65630   0.47840   1.000
    N18     N    0.32730   0.67100   0.52160   1.000
    N19     N    0.98900   0.71300   0.62630   1.000
    N20     N    0.32900   0.65630   0.47840   1.000
    N21     N    0.71300   0.98900   0.62630   1.000
    N22     N    0.32900   0.65630   0.52160   1.000
    N23     N    0.27600   0.28700   0.62630   1.000
    N24     N    0.18040   0.82980   0.51740   1.000
    N25     N    0.32730   0.67100   0.47840   1.000
    N26     N    0.65630   0.32900   0.47840   1.000
    N27     N    0.81960   0.17020   0.51740   1.000
    N28     N    0.34370   0.67100   0.47840   1.000
    N29     N    0.67100   0.34370   0.52160   1.000
    N30     N    0.67100   0.32730   0.47840   1.000
    N31     N    0.67270   0.34370   0.47840   1.000
    N32     N    0.28700   0.27600   0.37370   1.000
    N33     N    0.35060   0.17020   0.48260   1.000
    N34     N    0.32730   0.65630   0.52160   1.000
    N35     N    0.64940   0.81960   0.51740   1.000
    N36     N    0.64940   0.81960   0.48260   1.000
    N37     N    0.01100   0.28700   0.62630   1.000
    N38     N    0.65630   0.32730   0.52160   1.000
    N39     N    0.01100   0.28700   0.37370   1.000
    N40     N    0.01100   0.72400   0.62630   1.000
    N41     N    0.65630   0.32900   0.52160   1.000
    N42     N    0.82980   0.64940   0.48260   1.000
    N43     N    0.98900   0.27600   0.62630   1.000
    N44     N    0.18040   0.35060   0.51740   1.000
    N45     N    0.18040   0.82980   0.48260   1.000
    N46     N    0.65630   0.32730   0.47840   1.000
    N47     N    0.27600   0.98900   0.37370   1.000
    N48     N    0.17020   0.35060   0.51740   1.000
    N49     N    0.27600   0.98900   0.62630   1.000
    N50     N    0.34370   0.67100   0.52160   1.000
    N51     N    0.28700   0.01100   0.62630   1.000
    N52     N    0.67270   0.32900   0.47840   1.000
    N53     N    0.67270   0.34370   0.52160   1.000
    N54     N    0.28700   0.27600   0.62630   1.000
    N55     N    0.17020   0.81960   0.48260   1.000
    N56     N    0.72400   0.71300   0.37370   1.000
    N57     N    0.17020   0.35060   0.48260   1.000
    N58     N    0.18040   0.35060   0.48260   1.000
    N59     N    0.64940   0.82980   0.48260   1.000
    N60     N    0.72400   0.01100   0.37370   1.000
    N61     N    0.81960   0.64940   0.48260   1.000
    N62     N    0.82980   0.18040   0.48260   1.000
    N63     N    0.82980   0.64940   0.51740   1.000
    N64     N    0.71300   0.98900   0.37370   1.000
    N65     N    0.71300   0.72400   0.37370   1.000
    N66     N    0.28700   0.01100   0.37370   1.000
    N67     N    0.27600   0.28700   0.37370   1.000
    N68     N    0.67270   0.32900   0.52160   1.000
    N69     N    0.32900   0.67270   0.52160   1.000
    N70     N    0.98900   0.71300   0.37370   1.000
    N71     N    0.35060   0.18040   0.48260   1.000
    N72     N    0.81960   0.17020   0.48260   1.000
    O1      O    0.54260   0.00000   0.33850   1.000
    O2      O    0.54213   0.59665   0.50000   1.000
    O3      O    0.52726   0.05452   0.43257   1.000
    O4      O    0.88070   0.94910   0.00000   1.000
    O5      O    0.88070   0.82020   0.90610   1.000
    O6      O    0.05452   0.52726   0.56743   1.000
    O7      O    0.21600   0.90750   0.57110   1.000
    O8      O    0.37400   0.76500   0.49200   1.000
    O9      O    0.05452   0.59665   0.50000   1.000
    O10     O    0.09250   0.30850   0.42890   1.000
    O11     O    0.11930   0.05090   0.00000   1.000
    O12     O    0.17980   0.06050   0.90610   1.000
    O13     O    0.16546   0.63906   0.44574   1.000
    O14     O    0.39100   0.62600   0.49200   1.000
    O15     O    0.17980   0.11930   0.90610   1.000
    O16     O    0.33800   0.00000   0.46000   1.000
    O17     O    0.93950   0.11930   0.90610   1.000
    O18     O    0.06590   0.21610   0.94410   1.000
    O19     O    0.94548   0.54213   0.50000   1.000
    O20     O    0.54880   0.64240   0.59790   1.000
    O21     O    0.78400   0.09250   0.42890   1.000
    O22     O    0.00000   0.34180   0.43610   1.000
    O23     O    0.93410   0.15020   0.94410   1.000
    O24     O    0.66200   0.66200   0.54000   1.000
    O25     O    0.47360   0.63906   0.55426   1.000
    O26     O    0.23500   0.62600   0.50800   1.000
    O27     O    0.82020   0.93950   0.90610   1.000
    O28     O    0.69150   0.78400   0.57110   1.000
    O29     O    0.11930   0.93950   0.09390   1.000
    O30     O    0.00000   0.66200   0.46000   1.000
    O31     O    0.80605   0.19395   0.71960   1.000
    O32     O    0.30850   0.09250   0.57110   1.000
    O33     O    0.09360   0.64240   0.40210   1.000
    O34     O    0.78400   0.09250   0.57110   1.000
    O35     O    0.88070   0.06050   0.09390   1.000
    O36     O    0.15020   0.21610   0.94410   1.000
    O37     O    0.37400   0.60900   0.49200   1.000
    O38     O    0.88070   0.82020   0.09390   1.000
    O39     O    0.56590   0.56590   0.65380   1.000
    O40     O    0.15020   0.93410   0.05590   1.000
    O41     O    0.35040   0.00000   0.63720   1.000
    O42     O    0.11930   0.06840   0.00000   1.000
    O43     O    0.84980   0.78390   0.05590   1.000
    O44     O    0.30850   0.09250   0.42890   1.000
    O45     O    0.40335   0.45787   0.50000   1.000
    O46     O    0.35040   0.35040   0.36280   1.000
    O47     O    0.64960   0.64960   0.36280   1.000
    O48     O    0.84980   0.06590   0.94410   1.000
    O49     O    0.47274   0.52726   0.56743   1.000
    O50     O    0.54880   0.90640   0.40210   1.000
    O51     O    0.00000   0.43410   0.65380   1.000
    O52     O    0.62600   0.23500   0.50800   1.000
    O53     O    0.65820   0.65820   0.43610   1.000
    O54     O    0.45120   0.09360   0.40210   1.000
    O55     O    0.62600   0.39100   0.49200   1.000
    O56     O    0.39100   0.76500   0.49200   1.000
    O57     O    0.21610   0.06590   0.05590   1.000
    O58     O    0.19395   0.80605   0.28040   1.000
    O59     O    0.83454   0.47360   0.44574   1.000
    O60     O    0.00000   0.35040   0.63720   1.000
    O61     O    0.11930   0.17980   0.09390   1.000
    O62     O    0.36094   0.83454   0.44574   1.000
    O63     O    0.78400   0.69150   0.57110   1.000
    O64     O    0.56590   0.56590   0.34620   1.000
    O65     O    0.38790   0.19395   0.28040   1.000
    O66     O    0.06050   0.17980   0.90610   1.000
    O67     O    0.09360   0.45120   0.40210   1.000
    O68     O    0.15020   0.93410   0.94410   1.000
    O69     O    0.05090   0.11930   0.00000   1.000
    O70     O    0.66200   0.00000   0.54000   1.000
    O71     O    0.00000   0.36970   0.65610   1.000
    O72     O    0.90640   0.54880   0.59790   1.000
    O73     O    0.47360   0.83454   0.55426   1.000
    O74     O    0.00000   0.45740   0.33850   1.000
    O75     O    0.62600   0.39100   0.50800   1.000
    O76     O    0.63030   0.63030   0.34390   1.000
    O77     O    0.90640   0.35760   0.40210   1.000
    O78     O    0.65820   0.00000   0.43610   1.000
    O79     O    0.88070   0.06050   0.90610   1.000
    O80     O    0.23500   0.60900   0.49200   1.000
    O81     O    0.66200   0.66200   0.46000   1.000
    O82     O    0.54260   0.54260   0.33850   1.000
    O83     O    0.40335   0.94548   0.50000   1.000
    O84     O    0.54260   0.00000   0.66150   1.000
    O85     O    0.37400   0.60900   0.50800   1.000
    O86     O    0.63906   0.47360   0.44574   1.000
    O87     O    0.35760   0.45120   0.59790   1.000
    O88     O    0.30850   0.21600   0.42890   1.000
    O89     O    0.90750   0.69150   0.42890   1.000
    O90     O    0.06050   0.88070   0.90610   1.000
    O91     O    0.93410   0.15020   0.05590   1.000
    O92     O    0.34180   0.00000   0.56390   1.000
    O93     O    0.33800   0.33800   0.54000   1.000
    O94     O    0.43410   0.00000   0.34620   1.000
    O95     O    0.00000   0.54260   0.33850   1.000
    O96     O    0.11930   0.93950   0.90610   1.000
    O97     O    0.60900   0.23500   0.50800   1.000
    O98     O    0.47360   0.83454   0.44574   1.000
    O99     O    0.21600   0.90750   0.42890   1.000
    O100    O    0.64240   0.54880   0.59790   1.000
    O101    O    0.60900   0.37400   0.49200   1.000
    O102    O    0.78390   0.84980   0.94410   1.000
    O103    O    0.59665   0.54213   0.50000   1.000
    O104    O    0.83454   0.36094   0.55426   1.000
    O105    O    0.54213   0.94548   0.50000   1.000
    O106    O    0.35760   0.90640   0.40210   1.000
    O107    O    0.17980   0.06050   0.09390   1.000
    O108    O    0.00000   0.56590   0.65380   1.000
    O109    O    0.80605   0.61210   0.71960   1.000
    O110    O    0.45120   0.35760   0.59790   1.000
    O111    O    0.82020   0.88070   0.90610   1.000
    O112    O    0.83454   0.36094   0.44574   1.000
    O113    O    0.88070   0.93160   0.00000   1.000
    O114    O    0.63906   0.16546   0.55426   1.000
    O115    O    0.90750   0.21600   0.57110   1.000
    O116    O    0.23500   0.62600   0.49200   1.000
    O117    O    0.90750   0.21600   0.42890   1.000
    O118    O    0.60900   0.23500   0.49200   1.000
    O119    O    0.63906   0.47360   0.55426   1.000
    O120    O    0.45740   0.45740   0.33850   1.000
    O121    O    0.00000   0.63030   0.65610   1.000
    O122    O    0.64240   0.09360   0.40210   1.000
    O123    O    0.63030   0.63030   0.65610   1.000
    O124    O    0.00000   0.34180   0.56390   1.000
    O125    O    0.37400   0.76500   0.50800   1.000
    O126    O    0.06050   0.88070   0.09390   1.000
    O127    O    0.34180   0.34180   0.56390   1.000
    O128    O    0.90640   0.35760   0.59790   1.000
    O129    O    0.54880   0.64240   0.40210   1.000
    O130    O    0.54260   0.54260   0.66150   1.000
    O131    O    0.90750   0.69150   0.57110   1.000
    O132    O    0.21600   0.30850   0.57110   1.000
    O133    O    0.52640   0.36094   0.44574   1.000
    O134    O    0.45740   0.00000   0.66150   1.000
    O135    O    0.80605   0.19395   0.28040   1.000
    O136    O    0.21610   0.06590   0.94410   1.000
    O137    O    0.36970   0.00000   0.34390   1.000
    O138    O    0.64960   0.00000   0.36280   1.000
    O139    O    0.05090   0.93160   0.00000   1.000
    O140    O    0.09250   0.78400   0.42890   1.000
    O141    O    0.56590   0.00000   0.65380   1.000
    O142    O    0.00000   0.43410   0.34620   1.000
    O143    O    0.23500   0.60900   0.50800   1.000
    O144    O    0.54880   0.90640   0.59790   1.000
    O145    O    0.93950   0.82020   0.09390   1.000
    O146    O    0.00000   0.45740   0.66150   1.000
    O147    O    0.21610   0.15020   0.94410   1.000
    O148    O    0.56590   0.00000   0.34620   1.000
    O149    O    0.43410   0.43410   0.65380   1.000
    O150    O    0.36970   0.36970   0.34390   1.000
    O151    O    0.35040   0.00000   0.36280   1.000
    O152    O    0.05452   0.45787   0.50000   1.000
    O153    O    0.00000   0.66200   0.54000   1.000
    O154    O    0.36094   0.52640   0.55426   1.000
    O155    O    0.94548   0.47274   0.43257   1.000
    O156    O    0.94910   0.88070   0.00000   1.000
    O157    O    0.47274   0.94548   0.43257   1.000
    O158    O    0.19395   0.80605   0.71960   1.000
    O159    O    0.09360   0.45120   0.59790   1.000
    O160    O    0.43410   0.43410   0.34620   1.000
    O161    O    0.35040   0.35040   0.63720   1.000
    O162    O    0.64960   0.64960   0.63720   1.000
    O163    O    0.06590   0.21610   0.05590   1.000
    O164    O    0.52726   0.47274   0.43257   1.000
    O165    O    0.93160   0.88070   0.00000   1.000
    O166    O    0.52640   0.16546   0.55426   1.000
    O167    O    0.82020   0.93950   0.09390   1.000
    O168    O    0.61210   0.80605   0.71960   1.000
    O169    O    0.66200   0.00000   0.46000   1.000
    O170    O    0.17980   0.11930   0.09390   1.000
    O171    O    0.80605   0.61210   0.28040   1.000
    O172    O    0.78390   0.93410   0.05590   1.000
    O173    O    0.21610   0.15020   0.05590   1.000
    O174    O    0.09250   0.78400   0.57110   1.000
    O175    O    0.16546   0.63906   0.55426   1.000
    O176    O    0.39100   0.76500   0.50800   1.000
    O177    O    0.93160   0.05090   0.00000   1.000
    O178    O    0.82020   0.88070   0.09390   1.000
    O179    O    0.06840   0.94910   0.00000   1.000
    O180    O    0.69150   0.90750   0.57110   1.000
    O181    O    0.76500   0.39100   0.49200   1.000
    O182    O    0.06590   0.84980   0.94410   1.000
    O183    O    0.60900   0.37400   0.50800   1.000
    O184    O    0.78390   0.93410   0.94410   1.000
    O185    O    0.76500   0.37400   0.50800   1.000
    O186    O    0.06050   0.17980   0.09390   1.000
    O187    O    0.64240   0.54880   0.40210   1.000
    O188    O    0.33800   0.33800   0.46000   1.000
    O189    O    0.35760   0.90640   0.59790   1.000
    O190    O    0.62600   0.23500   0.49200   1.000
    O191    O    0.34180   0.00000   0.43610   1.000
    O192    O    0.21600   0.30850   0.42890   1.000
    O193    O    0.52640   0.36094   0.55426   1.000
    O194    O    0.09360   0.64240   0.59790   1.000
    O195    O    0.45120   0.35760   0.40210   1.000
    O196    O    0.00000   0.56590   0.34620   1.000
    O197    O    0.00000   0.64960   0.63720   1.000
    O198    O    0.00000   0.36970   0.34390   1.000
    O199    O    0.06840   0.11930   0.00000   1.000
    O200    O    0.94548   0.40335   0.50000   1.000
    O201    O    0.93950   0.11930   0.09390   1.000
    O202    O    0.00000   0.65820   0.43610   1.000
    O203    O    0.65820   0.00000   0.56390   1.000
    O204    O    0.93410   0.78390   0.94410   1.000
    O205    O    0.52726   0.05452   0.56743   1.000
    O206    O    0.06590   0.84980   0.05590   1.000
    O207    O    0.39100   0.62600   0.50800   1.000
    O208    O    0.63906   0.16546   0.44574   1.000
    O209    O    0.05452   0.52726   0.43257   1.000
    O210    O    0.65820   0.65820   0.56390   1.000
    O211    O    0.19395   0.38790   0.28040   1.000
    O212    O    0.93950   0.82020   0.90610   1.000
    O213    O    0.16546   0.52640   0.55426   1.000
    O214    O    0.45120   0.09360   0.59790   1.000
    O215    O    0.33800   0.00000   0.54000   1.000
    O216    O    0.59665   0.05452   0.50000   1.000
    O217    O    0.19395   0.38790   0.71960   1.000
    O218    O    0.45787   0.40335   0.50000   1.000
    O219    O    0.00000   0.35040   0.36280   1.000
    O220    O    0.00000   0.65820   0.56390   1.000
    O221    O    0.36970   0.36970   0.65610   1.000
    O222    O    0.30850   0.21600   0.57110   1.000
    O223    O    0.90640   0.54880   0.40210   1.000
    O224    O    0.00000   0.54260   0.66150   1.000
    O225    O    0.76500   0.39100   0.50800   1.000
    O226    O    0.63030   0.00000   0.34390   1.000
    O227    O    0.00000   0.33800   0.46000   1.000
    O228    O    0.47274   0.52726   0.43257   1.000
    O229    O    0.64240   0.09360   0.59790   1.000
    O230    O    0.36094   0.83454   0.55426   1.000
    O231    O    0.83454   0.47360   0.55426   1.000
    O232    O    0.93410   0.78390   0.05590   1.000
    O233    O    0.43410   0.00000   0.65380   1.000
    O234    O    0.36094   0.52640   0.44574   1.000
    O235    O    0.47360   0.63906   0.44574   1.000
    O236    O    0.09250   0.30850   0.57110   1.000
    O237    O    0.00000   0.63030   0.34390   1.000
    O238    O    0.61210   0.80605   0.28040   1.000
    O239    O    0.45740   0.00000   0.33850   1.000
    O240    O    0.15020   0.21610   0.05590   1.000
    O241    O    0.11930   0.17980   0.90610   1.000
    O242    O    0.16546   0.52640   0.44574   1.000
    O243    O    0.45787   0.05452   0.50000   1.000
    O244    O    0.47274   0.94548   0.56743   1.000
    O245    O    0.78390   0.84980   0.05590   1.000
    O246    O    0.52640   0.16546   0.44574   1.000
    O247    O    0.35760   0.45120   0.40210   1.000
    O248    O    0.00000   0.64960   0.36280   1.000
    O249    O    0.94548   0.47274   0.56743   1.000
    O250    O    0.69150   0.90750   0.42890   1.000
    O251    O    0.76500   0.37400   0.49200   1.000
    O252    O    0.52726   0.47274   0.56743   1.000
    O253    O    0.78400   0.69150   0.42890   1.000
    O254    O    0.45740   0.45740   0.66150   1.000
    O255    O    0.69150   0.78400   0.42890   1.000
    O256    O    0.63030   0.00000   0.65610   1.000
    O257    O    0.64960   0.00000   0.63720   1.000
    O258    O    0.00000   0.33800   0.54000   1.000
    O259    O    0.84980   0.78390   0.94410   1.000
    O260    O    0.34180   0.34180   0.43610   1.000
    O261    O    0.36970   0.00000   0.65610   1.000
    O262    O    0.94910   0.06840   0.00000   1.000
    O263    O    0.38790   0.19395   0.71960   1.000
    O264    O    0.84980   0.06590   0.05590   1.000
    F1      F    0.00000   0.25570   0.41070   1.000
    F2      F    0.59300   0.00000   0.25680   1.000
    F3      F    0.00000   0.40700   0.25680   1.000
    F4      F    0.59300   0.59300   0.74320   1.000
    F5      F    0.00000   0.74430   0.41070   1.000
    F6      F    0.25570   0.25570   0.58930   1.000
    F7      F    0.74430   0.00000   0.58930   1.000
    F8      F    0.40700   0.00000   0.74320   1.000
    F9      F    0.00000   0.74430   0.58930   1.000
    F10     F    0.25570   0.00000   0.58930   1.000
    F11     F    0.40700   0.00000   0.25680   1.000
    F12     F    0.25570   0.25570   0.41070   1.000
    F13     F    0.40700   0.40700   0.74320   1.000
    F14     F    0.00000   0.25570   0.58930   1.000
    F15     F    0.40700   0.40700   0.25680   1.000
    F16     F    0.25570   0.00000   0.41070   1.000
    F17     F    0.00000   0.59300   0.25680   1.000
    F18     F    0.59300   0.59300   0.25680   1.000
    F19     F    0.74430   0.00000   0.41070   1.000
    F20     F    0.74430   0.74430   0.41070   1.000
    F21     F    0.00000   0.59300   0.74320   1.000
    F22     F    0.59300   0.00000   0.74320   1.000
    F23     F    0.00000   0.40700   0.74320   1.000
    F24     F    0.74430   0.74430   0.58930   1.000
