data_functionalizedCrystal
_audit_creation_method	'EQeq! by Chris Wilmer'
_symmetry_space_group_name_H-M	'P1'
_symmetry_Int_Tables_number	1
_symmetry_cell_setting	triclinic
loop_
_symmetry_equiv_pos_as_xyz
  x,y,z
_cell_length_a	13.7642
_cell_length_b	15.6796
_cell_length_c	4.6902
_cell_angle_alpha	90
_cell_angle_beta	90
_cell_angle_gamma	90
loop_
_atom_site_label
_atom_site_type_symbol
_atom_site_fract_x
_atom_site_fract_y
_atom_site_fract_z
_atom_site_charge
Mof_V 	V 	0.4901	0.5162	0.0216	1.061
Mof_P 	P 	0.6378	0.5758	0.4895	0.56
Mof_O 	O 	0.6493	0.6672	0.3796	-0.839
Mof_O 	O 	0.5586	0.5773	0.7158	-0.805
Mof_O 	O 	0.6161	0.5132	0.2507	-0.605
Mof_O 	O 	0.437	0.6004	0.171	-0.769
Mof_V 	V 	0.0099	0.9838	0.0216	1.058
Mof_P 	P 	0.8622	0.9242	0.4895	0.558
Mof_O 	O 	0.8507	0.8328	0.3796	-0.838
Mof_O 	O 	0.9414	0.9227	0.7158	-0.804
Mof_O 	O 	0.8839	0.9868	0.2507	-0.601
Mof_O 	O 	0.063	0.8996	0.171	-0.772
Mof_V 	V 	0.5099	0.0162	0.9784	1.06
Mof_P 	P 	0.3622	0.0758	0.5105	0.558
Mof_O 	O 	0.3507	0.1672	0.6204	-0.84
Mof_O 	O 	0.4414	0.0773	0.2842	-0.807
Mof_O 	O 	0.3839	0.0132	0.7493	-0.606
Mof_O 	O 	0.563	0.1004	0.829	-0.77
Mof_V 	V 	0.9901	0.4838	0.9784	1.059
Mof_P 	P 	0.1378	0.4242	0.5105	0.559
Mof_O 	O 	0.1493	0.3328	0.6204	-0.838
Mof_O 	O 	0.0586	0.4227	0.2842	-0.806
Mof_O 	O 	0.1161	0.4868	0.7493	-0.603
Mof_O 	O 	0.937	0.3996	0.829	-0.77
Mof_V 	V 	0.5099	0.4838	0.9784	1.06
Mof_P 	P 	0.3622	0.4242	0.5105	0.559
Mof_O 	O 	0.3507	0.3328	0.6204	-0.84
Mof_O 	O 	0.4414	0.4227	0.2842	-0.806
Mof_O 	O 	0.3839	0.4868	0.7493	-0.605
Mof_O 	O 	0.563	0.3996	0.829	-0.769
Mof_V 	V 	0.9901	0.0162	0.9784	1.058
Mof_P 	P 	0.1378	0.0758	0.5105	0.558
Mof_O 	O 	0.1493	0.1672	0.6204	-0.838
Mof_O 	O 	0.0586	0.0773	0.2842	-0.804
Mof_O 	O 	0.1161	0.0132	0.7493	-0.601
Mof_O 	O 	0.937	0.1004	0.829	-0.772
Mof_V 	V 	0.4901	0.9838	0.0216	1.06
Mof_P 	P 	0.6378	0.9242	0.4895	0.558
Mof_O 	O 	0.6493	0.8328	0.3796	-0.84
Mof_O 	O 	0.5586	0.9227	0.7158	-0.807
Mof_O 	O 	0.6161	0.9868	0.2507	-0.606
Mof_O 	O 	0.437	0.8996	0.171	-0.77
Mof_V 	V 	0.0099	0.5162	0.0216	1.059
Mof_P 	P 	0.8622	0.5758	0.4895	0.559
Mof_O 	O 	0.8507	0.6672	0.3796	-0.838
Mof_O 	O 	0.9414	0.5773	0.7158	-0.806
Mof_O 	O 	0.8839	0.5132	0.2507	-0.603
Mof_O 	O 	0.063	0.6004	0.171	-0.77
Mof_V 	V 	0.75	0.75	0.2808	1.75
Mof_O 	O 	0.75	0.75	0.9383	-1.022
Mof_V 	V 	0.25	0.25	0.7192	1.75
Mof_O 	O 	0.25	0.25	0.0617	-1.022
Mof_K 	K 	0.5384	0.75	0.9023	2.678
Mof_K 	K 	0.9616	0.75	0.9023	2.678
Mof_K 	K 	0.4616	0.25	0.0977	2.678
Mof_K 	K 	0.0384	0.25	0.0977	2.678
Mof_C 	C 	0.75	0.5445	0.6566	-0.466
Mof_H 	H 	0.75	0.4828	0.6722	0.124
Mof_H 	H 	0.75	0.5671	0.8491	0.101
Mof_C 	C 	0.75	0.9555	0.6566	-0.462
Mof_H 	H 	0.75	0.0172	0.6722	0.121
Mof_H 	H 	0.75	0.9329	0.8491	0.1
Mof_C 	C 	0.25	0.0445	0.3434	-0.462
Mof_H 	H 	0.25	0.9828	0.3278	0.121
Mof_H 	H 	0.25	0.0671	0.1509	0.1
Mof_C 	C 	0.25	0.4555	0.3434	-0.466
Mof_H 	H 	0.25	0.5172	0.3278	0.124
Mof_H 	H 	0.25	0.4329	0.1509	0.101
_end
