# CIF file generated by openbabel 2.4.1, see http://openbabel.sf.net
data_I
_chemical_name_common 'image0'
_cell_length_a 20.96
_cell_length_b 11.53
_cell_length_c 14.211
_cell_angle_alpha 90
_cell_angle_beta 116.24
_cell_angle_gamma 90
_space_group_name_H-M_alt 'P 1'
_space_group_name_Hall 'P 1'
loop_
    _symmetry_equiv_pos_as_xyz
    x,y,z
loop_
    _atom_site_label
    _atom_site_type_symbol
    _atom_site_fract_x
    _atom_site_fract_y
    _atom_site_fract_z
    _atom_site_occupancy
    C1      C    0.30630   0.90090   0.21350   1.000
    C2      C    0.36230   0.82850   0.26960   1.000
    C3      C    0.35430   0.70610   0.25420   1.000
    H1      H    0.31150   0.67670   0.20350   1.000
    C4      C    0.40980   0.62820   0.31410   1.000
    C5      C    0.47310   0.67590   0.39240   1.000
    C6      C    0.53190   0.59560   0.46160   1.000
    C7      C    0.48020   0.79210   0.40280   1.000
    H2      H    0.52240   0.82210   0.45420   1.000
    C8      C    0.42900   0.86690   0.34220   1.000
    H3      H    0.43850   0.94610   0.34910   1.000
    C9      C    0.70250   0.37280   0.77130   1.000
    H4      H    0.75070   0.36610   0.78900   1.000
    C10     C    0.58890   0.40540   0.69740   1.000
    H5      H    0.54460   0.43380   0.65080   1.000
    C11     C    0.60080   0.33640   0.77450   1.000
    H6      H    0.56650   0.30430   0.79150   1.000
    C12     C    0.70050   0.23410   0.91460   1.000
    H7      H    0.75150   0.24670   0.95150   1.000
    H8      H    0.68050   0.24670   0.96360   1.000
    C13     C    0.68620   0.11170   0.87450   1.000
    C14     C    0.72690   0.06050   0.83080   1.000
    H9      H    0.76460   0.10100   0.82870   1.000
    C15     C    0.71130   0.94870   0.79040   1.000
    H10     H    0.73860   0.91450   0.76120   1.000
    C16     C    0.65500   0.88820   0.79360   1.000
    C17     C    0.61420   0.93940   0.83730   1.000
    H11     H    0.57650   0.89890   0.83940   1.000
    C18     C    0.62980   0.05120   0.87770   1.000
    H12     H    0.60250   0.08540   0.90690   1.000
    C19     C    0.63460   0.76200   0.75870   1.000
    H13     H    0.58320   0.75380   0.72780   1.000
    H14     H    0.65010   0.74210   0.70580   1.000
    C20     C    0.74400   0.64970   0.89790   1.000
    H15     H    0.77980   0.67220   0.87990   1.000
    C21     C    0.75070   0.57810   0.97700   1.000
    H16     H    0.79260   0.54180   0.02270   1.000
    C22     C    0.64250   0.63130   0.89710   1.000
    H17     H    0.59440   0.63380   0.88070   1.000
    Co1     Co   0.67055   0.52565   0.58687   1.000
    N1      N    0.39880   0.51730   0.32780   1.000
    H18     H    0.43430   0.47440   0.32830   1.000
    H19     H    0.35840   0.51070   0.33370   1.000
    N2      N    0.65750   0.43210   0.69460   1.000
    N3      N    0.66790   0.31970   0.82390   1.000
    N4      N    0.66590   0.68640   0.84400   1.000
    N5      N    0.68840   0.56740   0.97970   1.000
    O1      O    0.31700   0.00900   0.21480   1.000
    O2      O    0.24650   0.86090   0.15450   1.000
    O3      O    0.59090   0.64170   0.51820   1.000
    O4      O    0.52910   0.48930   0.45070   1.000
    C23     C    0.68420   0.11170   0.87230   1.000
    C24     C    0.68920   0.07020   0.78390   1.000
    C25     C    0.67180   0.95550   0.75290   1.000
    C26     C    0.64960   0.88230   0.81030   1.000
    C27     C    0.64460   0.92380   0.89870   1.000
    C28     C    0.66190   0.03850   0.92970   1.000
    H20     H    0.70410   0.11920   0.74550   1.000
    H21     H    0.67520   0.92780   0.69380   1.000
    H22     H    0.62970   0.87480   0.93710   1.000
    H23     H    0.65860   0.06620   0.98880   1.000
    C29     C    0.80630   0.40090   0.21350   1.000
    C30     C    0.86230   0.32850   0.26960   1.000
    C31     C    0.85430   0.20610   0.25420   1.000
    H24     H    0.81150   0.17670   0.20350   1.000
    C32     C    0.90980   0.12820   0.31410   1.000
    C33     C    0.97310   0.17590   0.39240   1.000
    C34     C    0.03190   0.09560   0.46160   1.000
    C35     C    0.98020   0.29210   0.40280   1.000
    H25     H    0.02240   0.32210   0.45420   1.000
    C36     C    0.92900   0.36690   0.34220   1.000
    H26     H    0.93850   0.44610   0.34910   1.000
    C37     C    0.20250   0.87280   0.77130   1.000
    H27     H    0.25070   0.86610   0.78900   1.000
    C38     C    0.08890   0.90540   0.69740   1.000
    H28     H    0.04460   0.93380   0.65080   1.000
    C39     C    0.10080   0.83640   0.77450   1.000
    H29     H    0.06650   0.80430   0.79150   1.000
    C40     C    0.20050   0.73410   0.91460   1.000
    H30     H    0.25150   0.74670   0.95150   1.000
    H31     H    0.18050   0.74670   0.96360   1.000
    C41     C    0.18620   0.61170   0.87450   1.000
    C42     C    0.22690   0.56050   0.83080   1.000
    H32     H    0.26460   0.60100   0.82870   1.000
    C43     C    0.21130   0.44870   0.79040   1.000
    H33     H    0.23860   0.41450   0.76120   1.000
    C44     C    0.15500   0.38820   0.79360   1.000
    C45     C    0.11420   0.43940   0.83730   1.000
    H34     H    0.07650   0.39890   0.83940   1.000
    C46     C    0.12980   0.55120   0.87770   1.000
    H35     H    0.10250   0.58540   0.90690   1.000
    C47     C    0.13460   0.26200   0.75870   1.000
    H36     H    0.08320   0.25380   0.72780   1.000
    H37     H    0.15010   0.24210   0.70580   1.000
    C48     C    0.24400   0.14970   0.89790   1.000
    H38     H    0.27980   0.17220   0.87990   1.000
    C49     C    0.25070   0.07810   0.97700   1.000
    H39     H    0.29260   0.04180   0.02270   1.000
    C50     C    0.14250   0.13130   0.89710   1.000
    H40     H    0.09440   0.13380   0.88070   1.000
    Co2     Co   0.17055   0.02565   0.58687   1.000
    N6      N    0.89880   0.01730   0.32780   1.000
    H41     H    0.93430   0.97440   0.32830   1.000
    H42     H    0.85840   0.01070   0.33370   1.000
    N7      N    0.15750   0.93210   0.69460   1.000
    N8      N    0.16790   0.81970   0.82390   1.000
    N9      N    0.16590   0.18640   0.84400   1.000
    N10     N    0.18840   0.06740   0.97970   1.000
    O5      O    0.81700   0.50900   0.21480   1.000
    O6      O    0.74650   0.36090   0.15450   1.000
    O7      O    0.09090   0.14170   0.51820   1.000
    O8      O    0.02910   0.98930   0.45070   1.000
    C51     C    0.18420   0.61170   0.87230   1.000
    C52     C    0.18920   0.57020   0.78390   1.000
    C53     C    0.17180   0.45550   0.75290   1.000
    C54     C    0.14960   0.38230   0.81030   1.000
    C55     C    0.14460   0.42380   0.89870   1.000
    C56     C    0.16190   0.53850   0.92970   1.000
    H43     H    0.20410   0.61920   0.74550   1.000
    H44     H    0.17520   0.42780   0.69380   1.000
    H45     H    0.12970   0.37480   0.93710   1.000
    H46     H    0.15860   0.56620   0.98880   1.000
    C57     C    0.30630   0.09910   0.71350   1.000
    C58     C    0.36230   0.17150   0.76960   1.000
    C59     C    0.35430   0.29390   0.75420   1.000
    H47     H    0.31150   0.32330   0.70350   1.000
    C60     C    0.40980   0.37180   0.81410   1.000
    C61     C    0.47310   0.32410   0.89240   1.000
    C62     C    0.53190   0.40440   0.96160   1.000
    C63     C    0.48020   0.20790   0.90280   1.000
    H48     H    0.52240   0.17790   0.95420   1.000
    C64     C    0.42900   0.13310   0.84220   1.000
    H49     H    0.43850   0.05390   0.84910   1.000
    C65     C    0.70250   0.62720   0.27130   1.000
    H50     H    0.75070   0.63390   0.28900   1.000
    C66     C    0.58890   0.59460   0.19740   1.000
    H51     H    0.54460   0.56620   0.15080   1.000
    C67     C    0.60080   0.66360   0.27450   1.000
    H52     H    0.56650   0.69570   0.29150   1.000
    C68     C    0.70050   0.76590   0.41460   1.000
    H53     H    0.75150   0.75330   0.45150   1.000
    H54     H    0.68050   0.75330   0.46360   1.000
    C69     C    0.68620   0.88830   0.37450   1.000
    C70     C    0.72690   0.93950   0.33080   1.000
    H55     H    0.76460   0.89900   0.32870   1.000
    C71     C    0.71130   0.05130   0.29040   1.000
    H56     H    0.73860   0.08550   0.26120   1.000
    C72     C    0.65500   0.11180   0.29360   1.000
    C73     C    0.61420   0.06060   0.33730   1.000
    H57     H    0.57650   0.10110   0.33940   1.000
    C74     C    0.62980   0.94880   0.37770   1.000
    H58     H    0.60250   0.91460   0.40690   1.000
    C75     C    0.63460   0.23800   0.25870   1.000
    H59     H    0.58320   0.24620   0.22780   1.000
    H60     H    0.65010   0.25790   0.20580   1.000
    C76     C    0.74400   0.35030   0.39790   1.000
    H61     H    0.77980   0.32780   0.37990   1.000
    C77     C    0.75070   0.42190   0.47700   1.000
    H62     H    0.79260   0.45820   0.52270   1.000
    C78     C    0.64250   0.36870   0.39710   1.000
    H63     H    0.59440   0.36620   0.38070   1.000
    Co3     Co   0.67055   0.47435   0.08687   1.000
    N11     N    0.39880   0.48270   0.82780   1.000
    H64     H    0.43430   0.52560   0.82830   1.000
    H65     H    0.35840   0.48930   0.83370   1.000
    N12     N    0.65750   0.56790   0.19460   1.000
    N13     N    0.66790   0.68030   0.32390   1.000
    N14     N    0.66590   0.31360   0.34400   1.000
    N15     N    0.68840   0.43260   0.47970   1.000
    O9      O    0.31700   0.99100   0.71480   1.000
    O10     O    0.24650   0.13910   0.65450   1.000
    O11     O    0.59090   0.35830   0.01820   1.000
    O12     O    0.52910   0.51070   0.95070   1.000
    C79     C    0.68420   0.88830   0.37230   1.000
    C80     C    0.68920   0.92980   0.28390   1.000
    C81     C    0.67180   0.04450   0.25290   1.000
    C82     C    0.64960   0.11770   0.31030   1.000
    C83     C    0.64460   0.07620   0.39870   1.000
    C84     C    0.66190   0.96150   0.42970   1.000
    H66     H    0.70410   0.88080   0.24550   1.000
    H67     H    0.67520   0.07220   0.19380   1.000
    H68     H    0.62970   0.12520   0.43710   1.000
    H69     H    0.65860   0.93380   0.48880   1.000
    C85     C    0.80630   0.59910   0.71350   1.000
    C86     C    0.86230   0.67150   0.76960   1.000
    C87     C    0.85430   0.79390   0.75420   1.000
    H70     H    0.81150   0.82330   0.70350   1.000
    C88     C    0.90980   0.87180   0.81410   1.000
    C89     C    0.97310   0.82410   0.89240   1.000
    C90     C    0.03190   0.90440   0.96160   1.000
    C91     C    0.98020   0.70790   0.90280   1.000
    H71     H    0.02240   0.67790   0.95420   1.000
    C92     C    0.92900   0.63310   0.84220   1.000
    H72     H    0.93850   0.55390   0.84910   1.000
    C93     C    0.20250   0.12720   0.27130   1.000
    H73     H    0.25070   0.13390   0.28900   1.000
    C94     C    0.08890   0.09460   0.19740   1.000
    H74     H    0.04460   0.06620   0.15080   1.000
    C95     C    0.10080   0.16360   0.27450   1.000
    H75     H    0.06650   0.19570   0.29150   1.000
    C96     C    0.20050   0.26590   0.41460   1.000
    H76     H    0.25150   0.25330   0.45150   1.000
    H77     H    0.18050   0.25330   0.46360   1.000
    C97     C    0.18620   0.38830   0.37450   1.000
    C98     C    0.22690   0.43950   0.33080   1.000
    H78     H    0.26460   0.39900   0.32870   1.000
    C99     C    0.21130   0.55130   0.29040   1.000
    H79     H    0.23860   0.58550   0.26120   1.000
    C100    C    0.15500   0.61180   0.29360   1.000
    C101    C    0.11420   0.56060   0.33730   1.000
    H80     H    0.07650   0.60110   0.33940   1.000
    C102    C    0.12980   0.44880   0.37770   1.000
    H81     H    0.10250   0.41460   0.40690   1.000
    C103    C    0.13460   0.73800   0.25870   1.000
    H82     H    0.08320   0.74620   0.22780   1.000
    H83     H    0.15010   0.75790   0.20580   1.000
    C104    C    0.24400   0.85030   0.39790   1.000
    H84     H    0.27980   0.82780   0.37990   1.000
    C105    C    0.25070   0.92190   0.47700   1.000
    H85     H    0.29260   0.95820   0.52270   1.000
    C106    C    0.14250   0.86870   0.39710   1.000
    H86     H    0.09440   0.86620   0.38070   1.000
    Co4     Co   0.17055   0.97435   0.08687   1.000
    N16     N    0.89880   0.98270   0.82780   1.000
    H87     H    0.93430   0.02560   0.82830   1.000
    H88     H    0.85840   0.98930   0.83370   1.000
    N17     N    0.15750   0.06790   0.19460   1.000
    N18     N    0.16790   0.18030   0.32390   1.000
    N19     N    0.16590   0.81360   0.34400   1.000
    N20     N    0.18840   0.93260   0.47970   1.000
    O13     O    0.81700   0.49100   0.71480   1.000
    O14     O    0.74650   0.63910   0.65450   1.000
    O15     O    0.09090   0.85830   0.01820   1.000
    O16     O    0.02910   0.01070   0.95070   1.000
    C107    C    0.18420   0.38830   0.37230   1.000
    C108    C    0.18920   0.42980   0.28390   1.000
    C109    C    0.17180   0.54450   0.25290   1.000
    C110    C    0.14960   0.61770   0.31030   1.000
    C111    C    0.14460   0.57620   0.39870   1.000
    C112    C    0.16190   0.46150   0.42970   1.000
    H89     H    0.20410   0.38080   0.24550   1.000
    H90     H    0.17520   0.57220   0.19380   1.000
    H91     H    0.12970   0.62520   0.43710   1.000
    H92     H    0.15860   0.43380   0.48880   1.000
