data_functionalizedCrystal
_audit_creation_method	'EQeq! by Chris Wilmer'
_symmetry_space_group_name_H-M	'P1'
_symmetry_Int_Tables_number	1
_symmetry_cell_setting	triclinic
loop_
_symmetry_equiv_pos_as_xyz
  x,y,z
_cell_length_a	13.177
_cell_length_b	13.2269
_cell_length_c	13.2269
_cell_angle_alpha	91.5649
_cell_angle_beta	100.129
_cell_angle_gamma	79.8713
loop_
_atom_site_label
_atom_site_type_symbol
_atom_site_fract_x
_atom_site_fract_y
_atom_site_fract_z
_atom_site_charge
Mof_Zn	Zn	0.00373	0.36323	0.70753	1.232
Mof_Zn	Zn	0.19129	0.23598	0.611	1.215
Mof_Zn	Zn	0.50373	0.29247	0.63677	1.235
Mof_Zn	Zn	0.69129	0.389	0.76402	1.215
Mof_H 	H 	0.492	0.9974	0.2084	0.049
Mof_H 	H 	0.4578	0.9134	0.1292	0.035
Mof_H 	H 	0.6302	0.8703	0.0205	0.028
Mof_H 	H 	0.5872	0.7812	0.0664	0.032
Mof_H 	H 	0.6195	0.8701	0.3283	0.036
Mof_H 	H 	0.6992	0.7862	0.2828	0.037
Mof_H 	H 	0.7046	0.9999	0.1387	0.039
Mof_H 	H 	0.7696	0.9196	0.2216	0.031
Mof_H 	H 	0.3141	0.032	0.091	0.157
Mof_H 	H 	0.4954	0.143	0.9218	0.163
Mof_H 	H 	0.168	0.1213	0.9873	-0.027
Mof_H 	H 	0.3512	0.2306	0.8218	-0.043
Mof_H 	H 	0.6413	0.7238	0.918	0.144
Mof_H 	H 	0.9105	0.6524	0.1188	0.172
Mof_H 	H 	0.7061	0.5987	0.8071	-0.053
Mof_H 	H 	0.9765	0.536	0.004	-0.046
Mof_H 	H 	0.4277	0.6451	0.2647	0.143
Mof_H 	H 	0.6972	0.7141	0.4171	0.137
Mof_H 	H 	0.4335	0.5192	0.3848	-0.016
Mof_H 	H 	0.7078	0.5803	0.5313	-0.009
Mof_H 	H 	0.8744	0.0224	0.2726	0.16
Mof_H 	H 	0.6471	0.1374	0.4298	0.176
Mof_H 	H 	0.9897	0.0998	0.3844	-0.034
Mof_H 	H 	0.7651	0.2146	0.5422	-0.028
Mof_H 	H 	0.992	0.7916	0.0026	0.064
Mof_H 	H 	0.9578	0.8708	0.0866	0.05
Mof_H 	H 	0.1302	0.9795	0.1297	0.029
Mof_H 	H 	0.0872	0.9336	0.2188	0.032
Mof_H 	H 	0.1195	0.6717	0.1299	0.037
Mof_H 	H 	0.1992	0.7172	0.2138	0.038
Mof_H 	H 	0.2046	0.8613	0.0001	0.041
Mof_H 	H 	0.2696	0.7784	0.0804	0.032
Mof_H 	H 	0.8141	0.909	0.968	0.159
Mof_H 	H 	0.9954	0.0782	0.857	0.167
Mof_H 	H 	0.668	0.0127	0.8787	-0.026
Mof_H 	H 	0.8512	0.1782	0.7694	-0.042
Mof_H 	H 	0.1413	0.082	0.2762	0.142
Mof_H 	H 	0.4105	0.8812	0.3476	0.17
Mof_H 	H 	0.2061	0.1929	0.4013	-0.054
Mof_H 	H 	0.4765	0.996	0.464	-0.048
Mof_H 	H 	0.9277	0.7353	0.3549	0.142
Mof_H 	H 	0.1972	0.5829	0.2859	0.136
Mof_H 	H 	0.9335	0.6152	0.4808	-0.018
Mof_H 	H 	0.2078	0.4687	0.4197	-0.011
Mof_H 	H 	0.3744	0.7274	0.9776	0.158
Mof_H 	H 	0.1471	0.5702	0.8626	0.172
Mof_H 	H 	0.4897	0.6156	0.9002	-0.036
Mof_H 	H 	0.2651	0.4578	0.7854	-0.027
Mof_C 	C 	0.6183	0.894	0.1744	0.001
Mof_C 	C 	0.5093	0.9575	0.1493	0.015
Mof_C 	C 	0.6378	0.827	0.0804	0.035
Mof_C 	C 	0.6294	0.827	0.269	0.026
Mof_C 	C 	0.7015	0.9615	0.1991	0.024
Mof_C 	C 	0.4193	0.0753	0.0151	0.311
Mof_C 	C 	0.3215	0.0708	0.036	-0.328
Mof_C 	C 	0.4293	0.1378	0.9344	-0.307
Mof_C 	C 	0.2343	0.1249	0.9741	0.213
Mof_C 	C 	0.3435	0.1899	0.8753	0.208
Mof_C 	C 	0.244	0.1845	0.8925	-0.26
Mof_C 	C 	0.1484	0.2414	0.8288	0.388
Mof_C 	C 	0.7705	0.6996	0.0296	0.308
Mof_C 	C 	0.7079	0.685	0.9358	-0.302
Mof_C 	C 	0.8698	0.6429	0.0555	-0.347
Mof_C 	C 	0.7476	0.6105	0.8693	0.203
Mof_C 	C 	0.9085	0.5723	0.9877	0.252
Mof_C 	C 	0.8459	0.5548	0.8936	-0.288
Mof_C 	C 	0.8891	0.478	0.8218	0.427
Mof_C 	C 	0.5637	0.6891	0.3279	0.297
Mof_C 	C 	0.4838	0.6325	0.3189	-0.29
Mof_C 	C 	0.6456	0.6732	0.4088	-0.292
Mof_C 	C 	0.4874	0.557	0.3908	0.182
Mof_C 	C 	0.6502	0.5945	0.4787	0.179
Mof_C 	C 	0.571	0.5374	0.4716	-0.228
Mof_C 	C 	0.5775	0.457	0.5494	0.449
Mof_C 	C 	0.7495	0.0723	0.3399	0.335
Mof_C 	C 	0.852	0.061	0.3268	-0.346
Mof_C 	C 	0.7165	0.1297	0.4209	-0.33
Mof_C 	C 	0.9206	0.1069	0.3943	0.237
Mof_C 	C 	0.7875	0.1753	0.4883	0.229
Mof_C 	C 	0.891	0.1637	0.4769	-0.273
Mof_C 	C 	0.9689	0.2103	0.5503	0.491
Mof_C 	C 	0.1183	0.8256	0.106	0.012
Mof_C 	C 	0.0093	0.8507	0.0425	-0.019
Mof_C 	C 	0.1378	0.9196	0.173	0.03
Mof_C 	C 	0.1294	0.731	0.173	0.02
Mof_C 	C 	0.2015	0.8009	0.0385	0.019
Mof_C 	C 	0.9193	0.9849	0.9247	0.316
Mof_C 	C 	0.8215	0.964	0.9292	-0.332
Mof_C 	C 	0.9293	0.0656	0.8622	-0.307
Mof_C 	C 	0.7343	0.0259	0.8751	0.217
Mof_C 	C 	0.8435	0.1247	0.8101	0.211
Mof_C 	C 	0.744	0.1075	0.8155	-0.26
Mof_C 	C 	0.6484	0.1712	0.7586	0.388
Mof_C 	C 	0.2705	0.9704	0.3004	0.308
Mof_C 	C 	0.2079	0.0642	0.315	-0.304
Mof_C 	C 	0.3698	0.9445	0.3571	-0.348
Mof_C 	C 	0.2476	0.1307	0.3895	0.204
Mof_C 	C 	0.4085	0.0123	0.4277	0.251
Mof_C 	C 	0.3459	0.1064	0.4452	-0.289
Mof_C 	C 	0.3891	0.1782	0.522	0.428
Mof_C 	C 	0.0637	0.6721	0.3109	0.288
Mof_C 	C 	0.9838	0.6811	0.3675	-0.283
Mof_C 	C 	0.1456	0.5912	0.3268	-0.292
Mof_C 	C 	0.9874	0.6092	0.443	0.192
Mof_C 	C 	0.1502	0.5213	0.4055	0.181
Mof_C 	C 	0.071	0.5284	0.4626	-0.239
Mof_C 	C 	0.0775	0.4506	0.543	0.452
Mof_C 	C 	0.2495	0.6601	0.9277	0.332
Mof_C 	C 	0.352	0.6732	0.939	-0.343
Mof_C 	C 	0.2165	0.5791	0.8703	-0.327
Mof_C 	C 	0.4206	0.6057	0.8931	0.232
Mof_C 	C 	0.2875	0.5117	0.8247	0.224
Mof_C 	C 	0.391	0.5231	0.8363	-0.269
Mof_C 	C 	0.4689	0.4497	0.7897	0.477
Mof_O 	O 	0.511	0.0235	0.0669	-0.248
Mof_O 	O 	0.74	0.76984	0.10144	-0.263
Mof_O 	O 	0.554	0.76111	0.25269	-0.257
Mof_O 	O 	0.6737	0.02942	0.27822	-0.25
Mof_O 	O 	0.0611	0.24447	0.85013	-0.381
Mof_O 	O 	0.1593	0.29119	0.74865	-0.589
Mof_O 	O 	0.8331	0.42568	0.76348	-0.536
Mof_O 	O 	0.9854	0.46683	0.81863	-0.434
Mof_O 	O 	0.5097	0.4001	0.5369	-0.472
Mof_O 	O 	0.6528	0.4509	0.6221	-0.474
Mof_O 	O 	0.0601	0.1947	0.5349	-0.533
Mof_O 	O 	0.9354	0.26207	0.62247	-0.502
Mof_O 	O 	0.011	0.9331	0.9765	-0.248
Mof_O 	O 	0.24	0.89856	0.23016	-0.262
Mof_O 	O 	0.054	0.74731	0.23889	-0.257
Mof_O 	O 	0.1737	0.72178	0.97058	-0.251
Mof_O 	O 	0.5611	0.14987	0.75553	-0.376
Mof_O 	O 	0.6593	0.25135	0.70881	-0.588
Mof_O 	O 	0.3331	0.23652	0.57432	-0.538
Mof_O 	O 	0.4854	0.18137	0.53317	-0.439
Mof_O 	O 	0.0097	0.4631	0.5999	-0.477
Mof_O 	O 	0.1528	0.3779	0.5491	-0.476
Mof_O 	O 	0.5601	0.4651	0.8053	-0.522
Mof_O 	O 	0.4354	0.37753	0.73793	-0.503
_end
