data_functionalizedCrystal
_audit_creation_method	'EQeq! by Chris Wilmer'
_symmetry_space_group_name_H-M	'P1'
_symmetry_Int_Tables_number	1
_symmetry_cell_setting	triclinic
loop_
_symmetry_equiv_pos_as_xyz
  x,y,z
_cell_length_a	10.673
_cell_length_b	12.1006
_cell_length_c	12.1006
_cell_angle_alpha	96.1065
_cell_angle_beta	104.571
_cell_angle_gamma	75.4292
loop_
_atom_site_label
_atom_site_type_symbol
_atom_site_fract_x
_atom_site_fract_y
_atom_site_fract_z
_atom_site_charge
Mof_Zn	Zn	0.25	0.11388	0.11388	1.168
Mof_Zn	Zn	0.75	0.88612	0.88612	1.265
Mof_Zn	Zn	-0	0	-0	1.103
Mof_Zn	Zn	0.5	0	-0	1.12
Mof_H 	H 	0.9108	0.1846	0.8152	-0.01
Mof_H 	H 	0.7736	0.212	0.6398	0.112
Mof_H 	H 	0.2322	0.0927	0.6781	-0.016
Mof_H 	H 	0.1982	0.0991	0.4653	-0.021
Mof_H 	H 	0.8271	0.1571	0.2685	-0.04
Mof_H 	H 	0.7379	0.1987	0.4269	0.11
Mof_H 	H 	0.5892	0.8152	0.1846	0.026
Mof_H 	H 	0.7264	0.6398	0.212	0.079
Mof_H 	H 	0.2678	0.6781	0.0927	0.009
Mof_H 	H 	0.3018	0.4653	0.0991	0.004
Mof_H 	H 	0.6729	0.2685	0.1571	0.003
Mof_H 	H 	0.7621	0.4269	0.1987	0.08
Mof_H 	H 	0.0892	0.8154	0.1848	0.06
Mof_H 	H 	0.2264	0.788	0.3602	0.051
Mof_H 	H 	0.7678	0.9073	0.3219	0.093
Mof_H 	H 	0.8018	0.9009	0.5347	0.099
Mof_H 	H 	0.1729	0.8429	0.7315	0.09
Mof_H 	H 	0.2621	0.8013	0.5731	0.054
Mof_H 	H 	0.4108	0.1848	0.8154	0.027
Mof_H 	H 	0.2736	0.3602	0.788	0.084
Mof_H 	H 	0.7322	0.3219	0.9073	0.068
Mof_H 	H 	0.6982	0.5347	0.9009	0.075
Mof_H 	H 	0.3271	0.7315	0.8429	0.056
Mof_H 	H 	0.2379	0.5731	0.8013	0.081
Mof_C 	C 	0.1794	0.1039	0.8795	0.402
Mof_C 	C 	0.0887	0.1315	0.7637	-0.236
Mof_C 	C 	0.9467	0.1707	0.7503	0.172
Mof_C 	C 	0.866	0.1876	0.6468	-0.266
Mof_C 	C 	0.9171	0.1696	0.547	0.228
Mof_C 	C 	0.0551	0.1364	0.558	-0.204
Mof_C 	C 	0.1395	0.1165	0.6697	0.102
Mof_C 	C 	0.1057	0.1195	0.4583	0.113
Mof_C 	C 	0.0729	0.112	0.2454	0.367
Mof_C 	C 	0.023	0.132	0.3532	-0.26
Mof_C 	C 	0.884	0.1561	0.3419	0.188
Mof_C 	C 	0.8307	0.1781	0.4357	-0.275
Mof_C 	C 	0.3206	0.8795	0.1039	0.373
Mof_C 	C 	0.4113	0.7637	0.1315	-0.138
Mof_C 	C 	0.5533	0.7503	0.1707	0.045
Mof_C 	C 	0.634	0.6468	0.1876	-0.155
Mof_C 	C 	0.5829	0.547	0.1696	0.095
Mof_C 	C 	0.4449	0.558	0.1364	-0.078
Mof_C 	C 	0.3605	0.6697	0.1165	0.014
Mof_C 	C 	0.3943	0.4583	0.1195	0.025
Mof_C 	C 	0.4271	0.2454	0.112	0.394
Mof_C 	C 	0.477	0.3532	0.132	-0.161
Mof_C 	C 	0.616	0.3419	0.1561	0.057
Mof_C 	C 	0.6693	0.4357	0.1781	-0.167
Mof_C 	C 	0.8206	0.8961	0.1205	0.366
Mof_C 	C 	0.9113	0.8685	0.2363	0.002
Mof_C 	C 	0.0533	0.8293	0.2497	-0.072
Mof_C 	C 	0.134	0.8124	0.3532	-0.006
Mof_C 	C 	0.0829	0.8304	0.453	-0.03
Mof_C 	C 	0.9449	0.8636	0.442	0.11
Mof_C 	C 	0.8605	0.8835	0.3303	-0.069
Mof_C 	C 	0.8943	0.8805	0.5417	-0.072
Mof_C 	C 	0.9271	0.888	0.7546	0.379
Mof_C 	C 	0.977	0.868	0.6468	0.012
Mof_C 	C 	0.116	0.8439	0.6581	-0.061
Mof_C 	C 	0.1693	0.8219	0.5643	-0.006
Mof_C 	C 	0.6794	0.1205	0.8961	0.395
Mof_C 	C 	0.5887	0.2363	0.8685	-0.097
Mof_C 	C 	0.4467	0.2497	0.8293	0.054
Mof_C 	C 	0.366	0.3532	0.8124	-0.109
Mof_C 	C 	0.4171	0.453	0.8304	0.088
Mof_C 	C 	0.5551	0.442	0.8636	-0.002
Mof_C 	C 	0.6395	0.3303	0.8835	0.013
Mof_C 	C 	0.6057	0.5417	0.8805	0.004
Mof_C 	C 	0.5729	0.7546	0.888	0.379
Mof_C 	C 	0.523	0.6468	0.868	-0.068
Mof_C 	C 	0.384	0.6581	0.8439	0.041
Mof_C 	C 	0.3307	0.5643	0.8219	-0.097
Mof_O 	O 	0.1203	0.1161	0.9635	-0.515
Mof_O 	O 	0.1878	0.121	0.2542	-0.527
Mof_O 	O 	0.9924	0.0904	0.153	-0.503
Mof_O 	O 	0.3007	0.0749	0.8901	-0.445
Mof_O 	O 	0.3797	0.9635	0.1161	-0.498
Mof_O 	O 	0.3122	0.2542	0.121	-0.535
Mof_O 	O 	0.5076	0.153	0.0904	-0.554
Mof_O 	O 	0.1993	0.8901	0.0749	-0.444
Mof_O 	O 	0.8797	0.8839	0.0365	-0.566
Mof_O 	O 	0.8122	0.879	0.7458	-0.426
Mof_O 	O 	0.0076	0.9096	0.847	-0.379
Mof_O 	O 	0.6993	0.9251	0.1099	-0.423
Mof_O 	O 	0.6203	0.0365	0.8839	-0.591
Mof_O 	O 	0.6878	0.7458	0.879	-0.427
Mof_O 	O 	0.4924	0.847	0.9096	-0.36
Mof_O 	O 	0.8007	0.1099	0.9251	-0.426
_end
