# CIF file generated by openbabel 2.4.1, see http://openbabel.sf.net
data_I
_chemical_name_common 'TOHZAS_clean'
_cell_length_a 9.55
_cell_length_b 13.3
_cell_length_c 13.377
_cell_angle_alpha 61.82
_cell_angle_beta 69.88
_cell_angle_gamma 76.1
_space_group_name_H-M_alt 'P 1'
_space_group_name_Hall 'P 1'
loop_
    _symmetry_equiv_pos_as_xyz
    x,y,z
loop_
    _atom_site_label
    _atom_site_type_symbol
    _atom_site_fract_x
    _atom_site_fract_y
    _atom_site_fract_z
    _atom_site_occupancy
    Cd1     Cd   0.37310   0.89267   0.09513   1.000
    Cd2     Cd   0.62690   0.10733   0.90487   1.000
    Cd3     Cd   0.00000   0.00000   0.00000   1.000
    H1      H    0.37870   0.61330   0.95110   1.000
    H2      H    0.43500   0.71890   0.83210   1.000
    H3      H    0.19490   0.81620   0.86080   1.000
    H4      H    0.14220   0.71120   0.98160   1.000
    H5      H    0.43650   0.73150   0.48620   1.000
    H6      H    0.39170   0.62480   0.48780   1.000
    H7      H    0.19540   0.81860   0.48680   1.000
    H8      H    0.14980   0.71180   0.48930   1.000
    H9      H    0.09970   0.35170   0.96590   1.000
    H10     H    0.10830   0.35230   0.84610   1.000
    H11     H    0.36450   0.29160   0.82150   1.000
    H12     H    0.35160   0.28690   0.94350   1.000
    H13     H    0.62130   0.38670   0.04890   1.000
    H14     H    0.56500   0.28110   0.16790   1.000
    H15     H    0.80510   0.18380   0.13920   1.000
    H16     H    0.85780   0.28880   0.01840   1.000
    H17     H    0.56350   0.26850   0.51380   1.000
    H18     H    0.60830   0.37520   0.51220   1.000
    H19     H    0.80460   0.18140   0.51320   1.000
    H20     H    0.85020   0.28820   0.51070   1.000
    H21     H    0.90030   0.64830   0.03410   1.000
    H22     H    0.89170   0.64770   0.15390   1.000
    H23     H    0.63550   0.70840   0.17850   1.000
    H24     H    0.64840   0.71310   0.05650   1.000
    C1      C    0.23860   0.52730   0.88840   1.000
    C2      C    0.33250   0.68790   0.70100   1.000
    C3      C    0.25410   0.52630   0.70220   1.000
    C4      C    0.34850   0.67670   0.88440   1.000
    C5      C    0.22750   0.75400   0.92710   1.000
    C6      C    0.28090   0.80290   0.98760   1.000
    C7      C    0.35470   0.68530   0.51400   1.000
    C8      C    0.23180   0.75810   0.46070   1.000
    C9      C    0.27590   0.81030   0.33060   1.000
    C10     C    0.16460   0.36240   0.88830   1.000
    C11     C    0.29810   0.27660   0.89950   1.000
    C12     C    0.26180   0.15250   0.96020   1.000
    C13     C    0.76140   0.47270   0.11160   1.000
    C14     C    0.66750   0.31210   0.29900   1.000
    C15     C    0.74590   0.47370   0.29780   1.000
    C16     C    0.65150   0.32330   0.11560   1.000
    C17     C    0.77250   0.24600   0.07290   1.000
    C18     C    0.71910   0.19710   0.01240   1.000
    C19     C    0.64530   0.31470   0.48600   1.000
    C20     C    0.76820   0.24190   0.53930   1.000
    C21     C    0.72410   0.18970   0.66940   1.000
    C22     C    0.83540   0.63760   0.11170   1.000
    C23     C    0.70190   0.72340   0.10050   1.000
    C24     C    0.73820   0.84750   0.03980   1.000
    N1      N    0.21530   0.47950   0.82350   1.000
    N2      N    0.30010   0.63090   0.82120   1.000
    N3      N    0.30790   0.63340   0.64400   1.000
    N4      N    0.78470   0.52050   0.17650   1.000
    N5      N    0.69990   0.36910   0.17880   1.000
    N6      N    0.69210   0.36660   0.35600   1.000
    O1      O    0.20920   0.48220   0.99280   1.000
    O2      O    0.38360   0.77940   0.64500   1.000
    O3      O    0.24110   0.47910   0.64870   1.000
    O4      O    0.40840   0.77460   0.00190   1.000
    O5      O    0.40660   0.78960   0.27670   1.000
    O6      O    0.18490   0.87070   0.27320   1.000
    O7      O    0.37600   0.07890   0.98040   1.000
    O8      O    0.13760   0.13130   0.98470   1.000
    O9      O    0.19580   0.87100   0.02530   1.000
    O10     O    0.79080   0.51780   0.00720   1.000
    O11     O    0.61640   0.22060   0.35500   1.000
    O12     O    0.75890   0.52090   0.35130   1.000
    O13     O    0.59160   0.22540   0.99810   1.000
    O14     O    0.59340   0.21040   0.72330   1.000
    O15     O    0.81510   0.12930   0.72680   1.000
    O16     O    0.62400   0.92110   0.01960   1.000
    O17     O    0.86240   0.86870   0.01530   1.000
    O18     O    0.80420   0.12900   0.97470   1.000
