data_functionalizedCrystal
_audit_creation_method	'EQeq! by Chris Wilmer'
_symmetry_space_group_name_H-M	'P1'
_symmetry_Int_Tables_number	1
_symmetry_cell_setting	triclinic
loop_
_symmetry_equiv_pos_as_xyz
  x,y,z
_cell_length_a	21.4594
_cell_length_b	21.4594
_cell_length_c	21.4594
_cell_angle_alpha	90
_cell_angle_beta	90
_cell_angle_gamma	90
loop_
_atom_site_label
_atom_site_type_symbol
_atom_site_fract_x
_atom_site_fract_y
_atom_site_fract_z
_atom_site_charge
Mof_Zn	Zn	0.05207	0.05207	0.05207	1.122
Mof_Zn	Zn	0.94793	0.94793	0.05207	1.126
Mof_Zn	Zn	0.94793	0.05207	0.94793	1.126
Mof_Zn	Zn	0.05207	0.94793	0.94793	1.126
Mof_Zn	Zn	0.05207	0.05207	0.94793	1.124
Mof_Zn	Zn	0.94793	0.94793	0.94793	1.128
Mof_Zn	Zn	0.05207	0.94793	0.05207	1.124
Mof_Zn	Zn	0.94793	0.05207	0.05207	1.124
Mof_O 	O 	-0	0	-0	-1.604
Mof_O 	O 	0.039	0.039	0.1398	-0.541
Mof_O 	O 	0.961	0.961	0.1398	-0.525
Mof_O 	O 	0.961	0.039	0.8602	-0.532
Mof_O 	O 	0.039	0.961	0.8602	-0.532
Mof_O 	O 	0.1398	0.039	0.039	-0.54
Mof_O 	O 	0.1398	0.961	0.961	-0.525
Mof_O 	O 	0.8602	0.961	0.039	-0.532
Mof_O 	O 	0.8602	0.039	0.961	-0.532
Mof_O 	O 	0.039	0.1398	0.039	-0.54
Mof_O 	O 	0.961	0.1398	0.961	-0.525
Mof_O 	O 	0.039	0.8602	0.961	-0.532
Mof_O 	O 	0.961	0.8602	0.039	-0.532
Mof_O 	O 	0.039	0.039	0.8602	-0.54
Mof_O 	O 	0.961	0.961	0.8602	-0.524
Mof_O 	O 	0.039	0.961	0.1398	-0.533
Mof_O 	O 	0.961	0.039	0.1398	-0.533
Mof_O 	O 	0.039	0.1398	0.961	-0.533
Mof_O 	O 	0.961	0.1398	0.039	-0.533
Mof_O 	O 	0.961	0.8602	0.961	-0.524
Mof_O 	O 	0.039	0.8602	0.039	-0.54
Mof_O 	O 	0.1398	0.039	0.961	-0.533
Mof_O 	O 	0.1398	0.961	0.039	-0.533
Mof_O 	O 	0.8602	0.039	0.039	-0.54
Mof_O 	O 	0.8602	0.961	0.961	-0.524
Mof_C 	C 	8.76985e-34	0	0.2339	-0.412
Mof_C 	C 	6.2315e-34	0	0.1662	0.906
Mof_C 	C 	1.36741e-33	2.55445e-33	0.3647	0.076
Mof_C 	C 	-3.48054e-33	-5.1089e-33	0.4343	-0.034
Mof_C 	C 	2.87241e-33	0	0.7661	-0.413
Mof_C 	C 	3.12625e-33	0	0.8338	0.904
Mof_C 	C 	2.38199e-33	0	0.6353	0.075
Mof_C 	C 	2.12104e-33	0	0.5657	-0.033
Mof_C 	C 	0.2339	0	-0	-0.412
Mof_C 	C 	0.1662	0	-0	0.906
Mof_C 	C 	0.3647	0	-0	0.076
Mof_C 	C 	0.4343	0	-0	-0.034
Mof_C 	C 	0.7661	0	-0	-0.413
Mof_C 	C 	0.8338	0	-0	0.904
Mof_C 	C 	0.6353	0	-0	0.075
Mof_C 	C 	0.5657	0	-0	-0.033
Mof_C 	C 	-0	0.2339	-0	-0.412
Mof_C 	C 	-0	0.1662	-0	0.906
Mof_C 	C 	2.55445e-33	0.3647	-0	0.076
Mof_C 	C 	-5.1089e-33	0.4343	-0	-0.034
Mof_C 	C 	-0	0.7661	-0	-0.413
Mof_C 	C 	-0	0.8338	-0	0.904
Mof_C 	C 	-0	0.6353	-0	0.075
Mof_C 	C 	-0	0.5657	-0	-0.033
Mof_C 	C 	0.9611	0.0389	0.2674	0.132
Mof_C 	C 	0.963	0.037	0.3322	-0.051
Mof_C 	C 	0.0389	0.9611	0.2674	0.132
Mof_C 	C 	0.037	0.963	0.3322	-0.051
Mof_C 	C 	0.0389	0.0389	0.7326	0.126
Mof_C 	C 	0.037	0.037	0.6678	-0.059
Mof_C 	C 	0.9611	0.9611	0.7326	0.141
Mof_C 	C 	0.963	0.963	0.6678	-0.041
Mof_C 	C 	0.2674	0.9611	0.0389	0.132
Mof_C 	C 	0.3322	0.963	0.037	-0.051
Mof_C 	C 	0.2674	0.0389	0.9611	0.132
Mof_C 	C 	0.3322	0.037	0.963	-0.051
Mof_C 	C 	0.7326	0.0389	0.0389	0.126
Mof_C 	C 	0.6678	0.037	0.037	-0.059
Mof_C 	C 	0.7326	0.9611	0.9611	0.141
Mof_C 	C 	0.6678	0.963	0.963	-0.041
Mof_C 	C 	0.0389	0.2674	0.9611	0.132
Mof_C 	C 	0.037	0.3322	0.963	-0.051
Mof_C 	C 	0.9611	0.2674	0.0389	0.132
Mof_C 	C 	0.963	0.3322	0.037	-0.051
Mof_C 	C 	0.0389	0.7326	0.0389	0.126
Mof_C 	C 	0.037	0.6678	0.037	-0.059
Mof_C 	C 	0.9611	0.7326	0.9611	0.141
Mof_C 	C 	0.963	0.6678	0.963	-0.041
Mof_C 	C 	0.0389	0.9611	0.7326	0.133
Mof_C 	C 	0.037	0.963	0.6678	-0.051
Mof_C 	C 	0.9611	0.0389	0.7326	0.133
Mof_C 	C 	0.963	0.037	0.6678	-0.051
Mof_C 	C 	0.0389	0.0389	0.2674	0.126
Mof_C 	C 	0.037	0.037	0.3322	-0.059
Mof_C 	C 	0.9611	0.9611	0.2674	0.141
Mof_C 	C 	0.963	0.963	0.3322	-0.041
Mof_C 	C 	0.9611	0.2674	0.9611	0.141
Mof_C 	C 	0.963	0.3322	0.963	-0.041
Mof_C 	C 	0.0389	0.2674	0.0389	0.126
Mof_C 	C 	0.037	0.3322	0.037	-0.059
Mof_C 	C 	0.0389	0.7326	0.9611	0.133
Mof_C 	C 	0.037	0.6678	0.963	-0.051
Mof_C 	C 	0.9611	0.7326	0.0389	0.133
Mof_C 	C 	0.963	0.6678	0.037	-0.051
Mof_C 	C 	0.2674	0.0389	0.0389	0.126
Mof_C 	C 	0.3322	0.037	0.037	-0.059
Mof_C 	C 	0.2674	0.9611	0.9611	0.141
Mof_C 	C 	0.3322	0.963	0.963	-0.041
Mof_C 	C 	0.7326	0.0389	0.9611	0.133
Mof_C 	C 	0.6678	0.037	0.963	-0.051
Mof_C 	C 	0.7326	0.9611	0.0389	0.133
Mof_C 	C 	0.6678	0.963	0.037	-0.051
Mof_C 	C 	6.86025e-33	0.9381	0.4671	0.011
Mof_C 	C 	6.86025e-33	0.0619	0.4671	0.005
Mof_C 	C 	1.99805e-33	0.9381	0.5329	0.011
Mof_C 	C 	1.99805e-33	0.0619	0.5329	0.005
Mof_C 	C 	0.4671	0	0.9381	0.011
Mof_C 	C 	0.4671	0	0.0619	0.005
Mof_C 	C 	0.5329	0	0.9381	0.011
Mof_C 	C 	0.5329	0	0.0619	0.005
Mof_C 	C 	0.9381	0.4671	-0	0.011
Mof_C 	C 	0.0619	0.4671	-0	0.005
Mof_C 	C 	0.9381	0.5329	-0	0.011
Mof_C 	C 	0.0619	0.5329	-0	0.005
Mof_C 	C 	0.9381	-5.1089e-33	0.5329	0.011
Mof_C 	C 	0.0619	-5.1089e-33	0.5329	0.005
Mof_C 	C 	0.9381	5.1089e-33	0.4671	0.011
Mof_C 	C 	0.0619	5.1089e-33	0.4671	0.005
Mof_C 	C 	4.70238e-33	0.4671	0.0619	0.005
Mof_C 	C 	3.51731e-33	0.4671	0.9381	0.011
Mof_C 	C 	-4.06525e-34	0.5329	0.0619	0.005
Mof_C 	C 	-6.70049e-33	0.5329	0.9381	0.011
Mof_C 	C 	0.4671	0.9381	-0	0.011
Mof_C 	C 	0.4671	0.0619	-0	0.005
Mof_C 	C 	0.5329	0.9381	-0	0.011
Mof_C 	C 	0.5329	0.0619	-0	0.005
Mof_Zn	Zn	0.55207	0.55207	0.55207	1.126
Mof_Zn	Zn	0.44793	0.44793	0.55207	1.126
Mof_Zn	Zn	0.44793	0.55207	0.44793	1.126
Mof_Zn	Zn	0.55207	0.44793	0.44793	1.126
Mof_Zn	Zn	0.55207	0.55207	0.44793	1.126
Mof_Zn	Zn	0.44793	0.44793	0.44793	1.126
Mof_Zn	Zn	0.55207	0.44793	0.55207	1.126
Mof_Zn	Zn	0.44793	0.55207	0.55207	1.126
Mof_O 	O 	0.5	0.5	0.5	-1.586
Mof_O 	O 	0.539	0.539	0.6398	-0.539
Mof_O 	O 	0.461	0.461	0.6398	-0.539
Mof_O 	O 	0.461	0.539	0.3602	-0.539
Mof_O 	O 	0.539	0.461	0.3602	-0.539
Mof_O 	O 	0.6398	0.539	0.539	-0.539
Mof_O 	O 	0.6398	0.461	0.461	-0.539
Mof_O 	O 	0.3602	0.461	0.539	-0.539
Mof_O 	O 	0.3602	0.539	0.461	-0.539
Mof_O 	O 	0.539	0.6398	0.539	-0.539
Mof_O 	O 	0.461	0.6398	0.461	-0.539
Mof_O 	O 	0.539	0.3602	0.461	-0.539
Mof_O 	O 	0.461	0.3602	0.539	-0.539
Mof_O 	O 	0.539	0.539	0.3602	-0.539
Mof_O 	O 	0.461	0.461	0.3602	-0.539
Mof_O 	O 	0.539	0.461	0.6398	-0.539
Mof_O 	O 	0.461	0.539	0.6398	-0.539
Mof_O 	O 	0.539	0.6398	0.461	-0.539
Mof_O 	O 	0.461	0.6398	0.539	-0.539
Mof_O 	O 	0.461	0.3602	0.461	-0.539
Mof_O 	O 	0.539	0.3602	0.539	-0.539
Mof_O 	O 	0.6398	0.539	0.461	-0.539
Mof_O 	O 	0.6398	0.461	0.539	-0.539
Mof_O 	O 	0.3602	0.539	0.539	-0.539
Mof_O 	O 	0.3602	0.461	0.461	-0.539
Mof_C 	C 	0.5	0.5	0.7339	-0.401
Mof_C 	C 	0.5	0.5	0.6662	0.928
Mof_C 	C 	0.5	0.5	0.8647	0.109
Mof_C 	C 	0.5	0.5	0.9343	-0.044
Mof_C 	C 	0.5	0.5	0.2661	-0.398
Mof_C 	C 	0.5	0.5	0.3338	0.927
Mof_C 	C 	0.5	0.5	0.1353	0.099
Mof_C 	C 	0.5	0.5	0.0657	-0.021
Mof_C 	C 	0.7339	0.5	0.5	-0.401
Mof_C 	C 	0.6662	0.5	0.5	0.928
Mof_C 	C 	0.8647	0.5	0.5	0.109
Mof_C 	C 	0.9343	0.5	0.5	-0.044
Mof_C 	C 	0.2661	0.5	0.5	-0.398
Mof_C 	C 	0.3338	0.5	0.5	0.927
Mof_C 	C 	0.1353	0.5	0.5	0.099
Mof_C 	C 	0.0657	0.5	0.5	-0.021
Mof_C 	C 	0.5	0.7339	0.5	-0.401
Mof_C 	C 	0.5	0.6662	0.5	0.928
Mof_C 	C 	0.5	0.8647	0.5	0.109
Mof_C 	C 	0.5	0.9343	0.5	-0.044
Mof_C 	C 	0.5	0.2661	0.5	-0.398
Mof_C 	C 	0.5	0.3338	0.5	0.927
Mof_C 	C 	0.5	0.1353	0.5	0.099
Mof_C 	C 	0.5	0.0657	0.5	-0.021
Mof_C 	C 	0.4611	0.5389	0.7674	0.132
Mof_C 	C 	0.463	0.537	0.8322	-0.061
Mof_C 	C 	0.5389	0.4611	0.7674	0.132
Mof_C 	C 	0.537	0.463	0.8322	-0.061
Mof_C 	C 	0.5389	0.5389	0.2326	0.13
Mof_C 	C 	0.537	0.537	0.1678	-0.058
Mof_C 	C 	0.4611	0.4611	0.2326	0.13
Mof_C 	C 	0.463	0.463	0.1678	-0.059
Mof_C 	C 	0.7674	0.4611	0.5389	0.132
Mof_C 	C 	0.8322	0.463	0.537	-0.061
Mof_C 	C 	0.7674	0.5389	0.4611	0.132
Mof_C 	C 	0.8322	0.537	0.463	-0.061
Mof_C 	C 	0.2326	0.5389	0.5389	0.13
Mof_C 	C 	0.1678	0.537	0.537	-0.058
Mof_C 	C 	0.2326	0.4611	0.4611	0.13
Mof_C 	C 	0.1678	0.463	0.463	-0.059
Mof_C 	C 	0.5389	0.7674	0.4611	0.132
Mof_C 	C 	0.537	0.8322	0.463	-0.061
Mof_C 	C 	0.4611	0.7674	0.5389	0.132
Mof_C 	C 	0.463	0.8322	0.537	-0.061
Mof_C 	C 	0.5389	0.2326	0.5389	0.13
Mof_C 	C 	0.537	0.1678	0.537	-0.058
Mof_C 	C 	0.4611	0.2326	0.4611	0.13
Mof_C 	C 	0.463	0.1678	0.463	-0.059
Mof_C 	C 	0.5389	0.4611	0.2326	0.13
Mof_C 	C 	0.537	0.463	0.1678	-0.059
Mof_C 	C 	0.4611	0.5389	0.2326	0.13
Mof_C 	C 	0.463	0.537	0.1678	-0.059
Mof_C 	C 	0.5389	0.5389	0.7674	0.132
Mof_C 	C 	0.537	0.537	0.8322	-0.06
Mof_C 	C 	0.4611	0.4611	0.7674	0.132
Mof_C 	C 	0.463	0.463	0.8322	-0.061
Mof_C 	C 	0.4611	0.7674	0.4611	0.132
Mof_C 	C 	0.463	0.8322	0.463	-0.061
Mof_C 	C 	0.5389	0.7674	0.5389	0.132
Mof_C 	C 	0.537	0.8322	0.537	-0.06
Mof_C 	C 	0.5389	0.2326	0.4611	0.13
Mof_C 	C 	0.537	0.1678	0.463	-0.059
Mof_C 	C 	0.4611	0.2326	0.5389	0.13
Mof_C 	C 	0.463	0.1678	0.537	-0.059
Mof_C 	C 	0.7674	0.5389	0.5389	0.132
Mof_C 	C 	0.8322	0.537	0.537	-0.06
Mof_C 	C 	0.7674	0.4611	0.4611	0.132
Mof_C 	C 	0.8322	0.463	0.463	-0.061
Mof_C 	C 	0.2326	0.5389	0.4611	0.13
Mof_C 	C 	0.1678	0.537	0.463	-0.059
Mof_C 	C 	0.2326	0.4611	0.5389	0.13
Mof_C 	C 	0.1678	0.463	0.537	-0.059
Mof_C 	C 	0.5	0.4381	0.9671	0.02
Mof_C 	C 	0.5	0.5619	0.9671	0.02
Mof_C 	C 	0.5	0.4381	0.0329	-0.003
Mof_C 	C 	0.5	0.5619	0.0329	-0.002
Mof_C 	C 	0.9671	0.5	0.4381	0.02
Mof_C 	C 	0.9671	0.5	0.5619	0.02
Mof_C 	C 	0.0329	0.5	0.4381	-0.003
Mof_C 	C 	0.0329	0.5	0.5619	-0.002
Mof_C 	C 	0.4381	0.9671	0.5	0.02
Mof_C 	C 	0.5619	0.9671	0.5	0.02
Mof_C 	C 	0.4381	0.0329	0.5	-0.003
Mof_C 	C 	0.5619	0.0329	0.5	-0.002
Mof_C 	C 	0.4381	0.5	0.0329	-0.003
Mof_C 	C 	0.5619	0.5	0.0329	-0.002
Mof_C 	C 	0.4381	0.5	0.9671	0.02
Mof_C 	C 	0.5619	0.5	0.9671	0.02
Mof_C 	C 	0.5	0.9671	0.5619	0.02
Mof_C 	C 	0.5	0.9671	0.4381	0.02
Mof_C 	C 	0.5	0.0329	0.5619	-0.002
Mof_C 	C 	0.5	0.0329	0.4381	-0.003
Mof_C 	C 	0.9671	0.4381	0.5	0.02
Mof_C 	C 	0.9671	0.5619	0.5	0.02
Mof_C 	C 	0.0329	0.4381	0.5	-0.003
Mof_C 	C 	0.0329	0.5619	0.5	-0.002
_end
