# CIF file generated by openbabel 2.4.1, see http://openbabel.sf.net
data_I
_chemical_name_common 'image0'
_cell_length_a 14.8999
_cell_length_b 14.8999
_cell_length_c 19.1362
_cell_angle_alpha 90
_cell_angle_beta 90
_cell_angle_gamma 90
_space_group_name_H-M_alt 'P 1'
_space_group_name_Hall 'P 1'
loop_
    _symmetry_equiv_pos_as_xyz
    x,y,z
loop_
    _atom_site_label
    _atom_site_type_symbol
    _atom_site_fract_x
    _atom_site_fract_y
    _atom_site_fract_z
    _atom_site_occupancy
    O1      O    0.37996   0.28327   0.70598   1.000
    O2      O    0.36626   0.31780   0.81939   1.000
    C1      C    0.48272   0.38576   0.75560   1.000
    C2      C    0.52107   0.42198   0.81554   1.000
    H1      H    0.50190   0.40230   0.86030   1.000
    C3      C    0.51320   0.41274   0.69019   1.000
    H2      H    0.48940   0.38560   0.64920   1.000
    C4      C    0.40400   0.32355   0.76085   1.000
    C5      C    0.28660   0.33660   0.97160   1.000
    H3      H    0.24930   0.38680   0.95430   1.000
    H4      H    0.34850   0.34500   0.95400   1.000
    C6      C    0.28690   0.33640   0.05090   1.000
    H5      H    0.34910   0.34480   0.06800   1.000
    H6      H    0.25030   0.38720   0.06830   1.000
    C7      C    0.30810   0.17660   0.97300   1.000
    H7      H    0.31460   0.37040   0.95640   1.000
    H8      H    0.21350   0.38190   0.95510   1.000
    C8      C    0.32430   0.30680   0.05230   1.000
    H9      H    0.21720   0.38240   0.06900   1.000
    H10     H    0.31760   0.36870   0.07030   1.000
    C9      C    0.15790   0.23760   0.97260   1.000
    H11     H    0.36600   0.32080   0.95640   1.000
    H12     H    0.28560   0.38150   0.95420   1.000
    C10     C    0.24020   0.34270   0.05140   1.000
    H13     H    0.29120   0.37990   0.06750   1.000
    H14     H    0.36970   0.31580   0.06970   1.000
    O3      O    0.12004   0.21673   0.70598   1.000
    O4      O    0.13374   0.18220   0.81939   1.000
    C11     C    0.01728   0.11424   0.75560   1.000
    C12     C    0.97893   0.07802   0.81554   1.000
    H15     H    0.99810   0.09770   0.86030   1.000
    C13     C    0.98680   0.08726   0.69019   1.000
    H16     H    0.01060   0.11440   0.64920   1.000
    C14     C    0.09600   0.17645   0.76085   1.000
    C15     C    0.21340   0.16340   0.97160   1.000
    H17     H    0.25070   0.11320   0.95430   1.000
    H18     H    0.15150   0.15500   0.95400   1.000
    C16     C    0.21310   0.16360   0.05090   1.000
    H19     H    0.15090   0.15520   0.06800   1.000
    H20     H    0.24970   0.11280   0.06830   1.000
    C17     C    0.19190   0.32340   0.97300   1.000
    H21     H    0.18540   0.12960   0.95640   1.000
    H22     H    0.28650   0.11810   0.95510   1.000
    C18     C    0.17570   0.19320   0.05230   1.000
    H23     H    0.28280   0.11760   0.06900   1.000
    H24     H    0.18240   0.13130   0.07030   1.000
    C19     C    0.34210   0.26240   0.97260   1.000
    H25     H    0.13400   0.17920   0.95640   1.000
    H26     H    0.21440   0.11850   0.95420   1.000
    C20     C    0.25980   0.15730   0.05140   1.000
    H27     H    0.20880   0.12010   0.06750   1.000
    H28     H    0.13030   0.18420   0.06970   1.000
    O5      O    0.21673   0.37996   0.70598   1.000
    O6      O    0.18220   0.36626   0.81939   1.000
    C21     C    0.11424   0.48272   0.75560   1.000
    C22     C    0.07802   0.52107   0.81554   1.000
    H29     H    0.09770   0.50190   0.86030   1.000
    C23     C    0.08726   0.51320   0.69019   1.000
    H30     H    0.11440   0.48940   0.64920   1.000
    C24     C    0.17645   0.40400   0.76085   1.000
    C25     C    0.16340   0.28660   0.97160   1.000
    H31     H    0.11320   0.24930   0.95430   1.000
    H32     H    0.15500   0.34850   0.95400   1.000
    C26     C    0.16360   0.28690   0.05090   1.000
    H33     H    0.15520   0.34910   0.06800   1.000
    H34     H    0.11280   0.25030   0.06830   1.000
    C27     C    0.32340   0.30810   0.97300   1.000
    H35     H    0.12960   0.31460   0.95640   1.000
    H36     H    0.11810   0.21350   0.95510   1.000
    C28     C    0.19320   0.32430   0.05230   1.000
    H37     H    0.11760   0.21720   0.06900   1.000
    H38     H    0.13130   0.31760   0.07030   1.000
    C29     C    0.26240   0.15790   0.97260   1.000
    H39     H    0.17920   0.36600   0.95640   1.000
    H40     H    0.11850   0.28560   0.95420   1.000
    C30     C    0.15730   0.24020   0.05140   1.000
    H41     H    0.12010   0.29120   0.06750   1.000
    H42     H    0.18420   0.36970   0.06970   1.000
    O7      O    0.28327   0.12004   0.70598   1.000
    O8      O    0.31780   0.13374   0.81939   1.000
    C31     C    0.38576   0.01728   0.75560   1.000
    C32     C    0.42198   0.97893   0.81554   1.000
    H43     H    0.40230   0.99810   0.86030   1.000
    C33     C    0.41274   0.98680   0.69019   1.000
    H44     H    0.38560   0.01060   0.64920   1.000
    C34     C    0.32355   0.09600   0.76085   1.000
    C35     C    0.33660   0.21340   0.97160   1.000
    H45     H    0.38680   0.25070   0.95430   1.000
    H46     H    0.34500   0.15150   0.95400   1.000
    C36     C    0.33640   0.21310   0.05090   1.000
    H47     H    0.34480   0.15090   0.06800   1.000
    H48     H    0.38720   0.24970   0.06830   1.000
    C37     C    0.17660   0.19190   0.97300   1.000
    H49     H    0.37040   0.18540   0.95640   1.000
    H50     H    0.38190   0.28650   0.95510   1.000
    C38     C    0.30680   0.17570   0.05230   1.000
    H51     H    0.38240   0.28280   0.06900   1.000
    H52     H    0.36870   0.18240   0.07030   1.000
    C39     C    0.23760   0.34210   0.97260   1.000
    H53     H    0.32080   0.13400   0.95640   1.000
    H54     H    0.38150   0.21440   0.95420   1.000
    C40     C    0.34270   0.25980   0.05140   1.000
    H55     H    0.37990   0.20880   0.06750   1.000
    H56     H    0.31580   0.13030   0.06970   1.000
    O9      O    0.62004   0.78327   0.79402   1.000
    O10     O    0.63374   0.81780   0.68061   1.000
    C41     C    0.51728   0.88576   0.74440   1.000
    C42     C    0.47893   0.92198   0.68446   1.000
    H57     H    0.49810   0.90230   0.63970   1.000
    C43     C    0.48680   0.91274   0.80981   1.000
    H58     H    0.51060   0.88560   0.85080   1.000
    C44     C    0.59600   0.82355   0.73915   1.000
    C45     C    0.71340   0.83660   0.52840   1.000
    H59     H    0.75070   0.88680   0.54570   1.000
    H60     H    0.65150   0.84500   0.54600   1.000
    C46     C    0.71310   0.83640   0.44910   1.000
    H61     H    0.65090   0.84480   0.43200   1.000
    H62     H    0.74970   0.88720   0.43170   1.000
    C47     C    0.69190   0.67660   0.52700   1.000
    H63     H    0.68540   0.87040   0.54360   1.000
    H64     H    0.78650   0.88190   0.54490   1.000
    C48     C    0.67570   0.80680   0.44770   1.000
    H65     H    0.78280   0.88240   0.43100   1.000
    H66     H    0.68240   0.86870   0.42970   1.000
    C49     C    0.84210   0.73760   0.52740   1.000
    H67     H    0.63400   0.82080   0.54360   1.000
    H68     H    0.71440   0.88150   0.54580   1.000
    C50     C    0.75980   0.84270   0.44860   1.000
    H69     H    0.70880   0.87990   0.43250   1.000
    H70     H    0.63030   0.81580   0.43030   1.000
    O11     O    0.87996   0.71673   0.79402   1.000
    O12     O    0.86626   0.68220   0.68061   1.000
    C51     C    0.98272   0.61424   0.74440   1.000
    C52     C    0.02107   0.57802   0.68446   1.000
    H71     H    0.00190   0.59770   0.63970   1.000
    C53     C    0.01320   0.58726   0.80981   1.000
    H72     H    0.98940   0.61440   0.85080   1.000
    C54     C    0.90400   0.67645   0.73915   1.000
    C55     C    0.78660   0.66340   0.52840   1.000
    H73     H    0.74930   0.61320   0.54570   1.000
    H74     H    0.84850   0.65500   0.54600   1.000
    C56     C    0.78690   0.66360   0.44910   1.000
    H75     H    0.84910   0.65520   0.43200   1.000
    H76     H    0.75030   0.61280   0.43170   1.000
    C57     C    0.80810   0.82340   0.52700   1.000
    H77     H    0.81460   0.62960   0.54360   1.000
    H78     H    0.71350   0.61810   0.54490   1.000
    C58     C    0.82430   0.69320   0.44770   1.000
    H79     H    0.71720   0.61760   0.43100   1.000
    H80     H    0.81760   0.63130   0.42970   1.000
    C59     C    0.65790   0.76240   0.52740   1.000
    H81     H    0.86600   0.67920   0.54360   1.000
    H82     H    0.78560   0.61850   0.54580   1.000
    C60     C    0.74020   0.65730   0.44860   1.000
    H83     H    0.79120   0.62010   0.43250   1.000
    H84     H    0.86970   0.68420   0.43030   1.000
    O13     O    0.78327   0.87996   0.79402   1.000
    O14     O    0.81780   0.86626   0.68061   1.000
    C61     C    0.88576   0.98272   0.74440   1.000
    C62     C    0.92198   0.02107   0.68446   1.000
    H85     H    0.90230   0.00190   0.63970   1.000
    C63     C    0.91274   0.01320   0.80981   1.000
    H86     H    0.88560   0.98940   0.85080   1.000
    C64     C    0.82355   0.90400   0.73915   1.000
    C65     C    0.83660   0.78660   0.52840   1.000
    H87     H    0.88680   0.74930   0.54570   1.000
    H88     H    0.84500   0.84850   0.54600   1.000
    C66     C    0.83640   0.78690   0.44910   1.000
    H89     H    0.84480   0.84910   0.43200   1.000
    H90     H    0.88720   0.75030   0.43170   1.000
    C67     C    0.67660   0.80810   0.52700   1.000
    H91     H    0.87040   0.81460   0.54360   1.000
    H92     H    0.88190   0.71350   0.54490   1.000
    C68     C    0.80680   0.82430   0.44770   1.000
    H93     H    0.88240   0.71720   0.43100   1.000
    H94     H    0.86870   0.81760   0.42970   1.000
    C69     C    0.73760   0.65790   0.52740   1.000
    H95     H    0.82080   0.86600   0.54360   1.000
    H96     H    0.88150   0.78560   0.54580   1.000
    C70     C    0.84270   0.74020   0.44860   1.000
    H97     H    0.87990   0.79120   0.43250   1.000
    H98     H    0.81580   0.86970   0.43030   1.000
    O15     O    0.71673   0.62004   0.79402   1.000
    O16     O    0.68220   0.63374   0.68061   1.000
    C71     C    0.61424   0.51728   0.74440   1.000
    C72     C    0.57802   0.47893   0.68446   1.000
    H99     H    0.59770   0.49810   0.63970   1.000
    C73     C    0.58726   0.48680   0.80981   1.000
    H100    H    0.61440   0.51060   0.85080   1.000
    C74     C    0.67645   0.59600   0.73915   1.000
    C75     C    0.66340   0.71340   0.52840   1.000
    H101    H    0.61320   0.75070   0.54570   1.000
    H102    H    0.65500   0.65150   0.54600   1.000
    C76     C    0.66360   0.71310   0.44910   1.000
    H103    H    0.65520   0.65090   0.43200   1.000
    H104    H    0.61280   0.74970   0.43170   1.000
    C77     C    0.82340   0.69190   0.52700   1.000
    H105    H    0.62960   0.68540   0.54360   1.000
    H106    H    0.61810   0.78650   0.54490   1.000
    C78     C    0.69320   0.67570   0.44770   1.000
    H107    H    0.61760   0.78280   0.43100   1.000
    H108    H    0.63130   0.68240   0.42970   1.000
    C79     C    0.76240   0.84210   0.52740   1.000
    H109    H    0.67920   0.63400   0.54360   1.000
    H110    H    0.61850   0.71440   0.54580   1.000
    C80     C    0.65730   0.75980   0.44860   1.000
    H111    H    0.62010   0.70880   0.43250   1.000
    H112    H    0.68420   0.63030   0.43030   1.000
    O17     O    0.62004   0.71673   0.29402   1.000
    O18     O    0.63374   0.68220   0.18061   1.000
    C81     C    0.51728   0.61424   0.24440   1.000
    C82     C    0.47893   0.57802   0.18446   1.000
    H113    H    0.49810   0.59770   0.13970   1.000
    C83     C    0.48680   0.58726   0.30981   1.000
    H114    H    0.51060   0.61440   0.35080   1.000
    C84     C    0.59600   0.67645   0.23915   1.000
    C85     C    0.71340   0.66340   0.02840   1.000
    H115    H    0.75070   0.61320   0.04570   1.000
    H116    H    0.65150   0.65500   0.04600   1.000
    C86     C    0.71310   0.66360   0.94910   1.000
    H117    H    0.65090   0.65520   0.93200   1.000
    H118    H    0.74970   0.61280   0.93170   1.000
    C87     C    0.69190   0.82340   0.02700   1.000
    H119    H    0.68540   0.62960   0.04360   1.000
    H120    H    0.78650   0.61810   0.04490   1.000
    C88     C    0.67570   0.69320   0.94770   1.000
    H121    H    0.78280   0.61760   0.93100   1.000
    H122    H    0.68240   0.63130   0.92970   1.000
    C89     C    0.84210   0.76240   0.02740   1.000
    H123    H    0.63400   0.67920   0.04360   1.000
    H124    H    0.71440   0.61850   0.04580   1.000
    C90     C    0.75980   0.65730   0.94860   1.000
    H125    H    0.70880   0.62010   0.93250   1.000
    H126    H    0.63030   0.68420   0.93030   1.000
    O19     O    0.87996   0.78327   0.29402   1.000
    O20     O    0.86626   0.81780   0.18061   1.000
    C91     C    0.98272   0.88576   0.24440   1.000
    C92     C    0.02107   0.92198   0.18446   1.000
    H127    H    0.00190   0.90230   0.13970   1.000
    C93     C    0.01320   0.91274   0.30981   1.000
    H128    H    0.98940   0.88560   0.35080   1.000
    C94     C    0.90400   0.82355   0.23915   1.000
    C95     C    0.78660   0.83660   0.02840   1.000
    H129    H    0.74930   0.88680   0.04570   1.000
    H130    H    0.84850   0.84500   0.04600   1.000
    C96     C    0.78690   0.83640   0.94910   1.000
    H131    H    0.84910   0.84480   0.93200   1.000
    H132    H    0.75030   0.88720   0.93170   1.000
    C97     C    0.80810   0.67660   0.02700   1.000
    H133    H    0.81460   0.87040   0.04360   1.000
    H134    H    0.71350   0.88190   0.04490   1.000
    C98     C    0.82430   0.80680   0.94770   1.000
    H135    H    0.71720   0.88240   0.93100   1.000
    H136    H    0.81760   0.86870   0.92970   1.000
    C99     C    0.65790   0.73760   0.02740   1.000
    H137    H    0.86600   0.82080   0.04360   1.000
    H138    H    0.78560   0.88150   0.04580   1.000
    C100    C    0.74020   0.84270   0.94860   1.000
    H139    H    0.79120   0.87990   0.93250   1.000
    H140    H    0.86970   0.81580   0.93030   1.000
    O21     O    0.78327   0.62004   0.29402   1.000
    O22     O    0.81780   0.63374   0.18061   1.000
    C101    C    0.88576   0.51728   0.24440   1.000
    C102    C    0.92198   0.47893   0.18446   1.000
    H141    H    0.90230   0.49810   0.13970   1.000
    C103    C    0.91274   0.48680   0.30981   1.000
    H142    H    0.88560   0.51060   0.35080   1.000
    C104    C    0.82355   0.59600   0.23915   1.000
    C105    C    0.83660   0.71340   0.02840   1.000
    H143    H    0.88680   0.75070   0.04570   1.000
    H144    H    0.84500   0.65150   0.04600   1.000
    C106    C    0.83640   0.71310   0.94910   1.000
    H145    H    0.84480   0.65090   0.93200   1.000
    H146    H    0.88720   0.74970   0.93170   1.000
    C107    C    0.67660   0.69190   0.02700   1.000
    H147    H    0.87040   0.68540   0.04360   1.000
    H148    H    0.88190   0.78650   0.04490   1.000
    C108    C    0.80680   0.67570   0.94770   1.000
    H149    H    0.88240   0.78280   0.93100   1.000
    H150    H    0.86870   0.68240   0.92970   1.000
    C109    C    0.73760   0.84210   0.02740   1.000
    H151    H    0.82080   0.63400   0.04360   1.000
    H152    H    0.88150   0.71440   0.04580   1.000
    C110    C    0.84270   0.75980   0.94860   1.000
    H153    H    0.87990   0.70880   0.93250   1.000
    H154    H    0.81580   0.63030   0.93030   1.000
    O23     O    0.71673   0.87996   0.29402   1.000
    O24     O    0.68220   0.86626   0.18061   1.000
    C111    C    0.61424   0.98272   0.24440   1.000
    C112    C    0.57802   0.02107   0.18446   1.000
    H155    H    0.59770   0.00190   0.13970   1.000
    C113    C    0.58726   0.01320   0.30981   1.000
    H156    H    0.61440   0.98940   0.35080   1.000
    C114    C    0.67645   0.90400   0.23915   1.000
    C115    C    0.66340   0.78660   0.02840   1.000
    H157    H    0.61320   0.74930   0.04570   1.000
    H158    H    0.65500   0.84850   0.04600   1.000
    C116    C    0.66360   0.78690   0.94910   1.000
    H159    H    0.65520   0.84910   0.93200   1.000
    H160    H    0.61280   0.75030   0.93170   1.000
    C117    C    0.82340   0.80810   0.02700   1.000
    H161    H    0.62960   0.81460   0.04360   1.000
    H162    H    0.61810   0.71350   0.04490   1.000
    C118    C    0.69320   0.82430   0.94770   1.000
    H163    H    0.61760   0.71720   0.93100   1.000
    H164    H    0.63130   0.81760   0.92970   1.000
    C119    C    0.76240   0.65790   0.02740   1.000
    H165    H    0.67920   0.86600   0.04360   1.000
    H166    H    0.61850   0.78560   0.04580   1.000
    C120    C    0.65730   0.74020   0.94860   1.000
    H167    H    0.62010   0.79120   0.93250   1.000
    H168    H    0.68420   0.86970   0.93030   1.000
    O25     O    0.37996   0.21673   0.20598   1.000
    O26     O    0.36626   0.18220   0.31939   1.000
    C121    C    0.48272   0.11424   0.25560   1.000
    C122    C    0.52107   0.07802   0.31554   1.000
    H169    H    0.50190   0.09770   0.36030   1.000
    C123    C    0.51320   0.08726   0.19019   1.000
    H170    H    0.48940   0.11440   0.14920   1.000
    C124    C    0.40400   0.17645   0.26085   1.000
    C125    C    0.28660   0.16340   0.47160   1.000
    H171    H    0.24930   0.11320   0.45430   1.000
    H172    H    0.34850   0.15500   0.45400   1.000
    C126    C    0.28690   0.16360   0.55090   1.000
    H173    H    0.34910   0.15520   0.56800   1.000
    H174    H    0.25030   0.11280   0.56830   1.000
    C127    C    0.30810   0.32340   0.47300   1.000
    H175    H    0.31460   0.12960   0.45640   1.000
    H176    H    0.21350   0.11810   0.45510   1.000
    C128    C    0.32430   0.19320   0.55230   1.000
    H177    H    0.21720   0.11760   0.56900   1.000
    H178    H    0.31760   0.13130   0.57030   1.000
    C129    C    0.15790   0.26240   0.47260   1.000
    H179    H    0.36600   0.17920   0.45640   1.000
    H180    H    0.28560   0.11850   0.45420   1.000
    C130    C    0.24020   0.15730   0.55140   1.000
    H181    H    0.29120   0.12010   0.56750   1.000
    H182    H    0.36970   0.18420   0.56970   1.000
    O27     O    0.12004   0.28327   0.20598   1.000
    O28     O    0.13374   0.31780   0.31939   1.000
    C131    C    0.01728   0.38576   0.25560   1.000
    C132    C    0.97893   0.42198   0.31554   1.000
    H183    H    0.99810   0.40230   0.36030   1.000
    C133    C    0.98680   0.41274   0.19019   1.000
    H184    H    0.01060   0.38560   0.14920   1.000
    C134    C    0.09600   0.32355   0.26085   1.000
    C135    C    0.21340   0.33660   0.47160   1.000
    H185    H    0.25070   0.38680   0.45430   1.000
    H186    H    0.15150   0.34500   0.45400   1.000
    C136    C    0.21310   0.33640   0.55090   1.000
    H187    H    0.15090   0.34480   0.56800   1.000
    H188    H    0.24970   0.38720   0.56830   1.000
    C137    C    0.19190   0.17660   0.47300   1.000
    H189    H    0.18540   0.37040   0.45640   1.000
    H190    H    0.28650   0.38190   0.45510   1.000
    C138    C    0.17570   0.30680   0.55230   1.000
    H191    H    0.28280   0.38240   0.56900   1.000
    H192    H    0.18240   0.36870   0.57030   1.000
    C139    C    0.34210   0.23760   0.47260   1.000
    H193    H    0.13400   0.32080   0.45640   1.000
    H194    H    0.21440   0.38150   0.45420   1.000
    C140    C    0.25980   0.34270   0.55140   1.000
    H195    H    0.20880   0.37990   0.56750   1.000
    H196    H    0.13030   0.31580   0.56970   1.000
    O29     O    0.21673   0.12004   0.20598   1.000
    O30     O    0.18220   0.13374   0.31939   1.000
    C141    C    0.11424   0.01728   0.25560   1.000
    C142    C    0.07802   0.97893   0.31554   1.000
    H197    H    0.09770   0.99810   0.36030   1.000
    C143    C    0.08726   0.98680   0.19019   1.000
    H198    H    0.11440   0.01060   0.14920   1.000
    C144    C    0.17645   0.09600   0.26085   1.000
    C145    C    0.16340   0.21340   0.47160   1.000
    H199    H    0.11320   0.25070   0.45430   1.000
    H200    H    0.15500   0.15150   0.45400   1.000
    C146    C    0.16360   0.21310   0.55090   1.000
    H201    H    0.15520   0.15090   0.56800   1.000
    H202    H    0.11280   0.24970   0.56830   1.000
    C147    C    0.32340   0.19190   0.47300   1.000
    H203    H    0.12960   0.18540   0.45640   1.000
    H204    H    0.11810   0.28650   0.45510   1.000
    C148    C    0.19320   0.17570   0.55230   1.000
    H205    H    0.11760   0.28280   0.56900   1.000
    H206    H    0.13130   0.18240   0.57030   1.000
    C149    C    0.26240   0.34210   0.47260   1.000
    H207    H    0.17920   0.13400   0.45640   1.000
    H208    H    0.11850   0.21440   0.45420   1.000
    C150    C    0.15730   0.25980   0.55140   1.000
    H209    H    0.12010   0.20880   0.56750   1.000
    H210    H    0.18420   0.13030   0.56970   1.000
    O31     O    0.28327   0.37996   0.20598   1.000
    O32     O    0.31780   0.36626   0.31939   1.000
    C151    C    0.38576   0.48272   0.25560   1.000
    C152    C    0.42198   0.52107   0.31554   1.000
    H211    H    0.40230   0.50190   0.36030   1.000
    C153    C    0.41274   0.51320   0.19019   1.000
    H212    H    0.38560   0.48940   0.14920   1.000
    C154    C    0.32355   0.40400   0.26085   1.000
    C155    C    0.33660   0.28660   0.47160   1.000
    H213    H    0.38680   0.24930   0.45430   1.000
    H214    H    0.34500   0.34850   0.45400   1.000
    C156    C    0.33640   0.28690   0.55090   1.000
    H215    H    0.34480   0.34910   0.56800   1.000
    H216    H    0.38720   0.25030   0.56830   1.000
    C157    C    0.17660   0.30810   0.47300   1.000
    H217    H    0.37040   0.31460   0.45640   1.000
    H218    H    0.38190   0.21350   0.45510   1.000
    C158    C    0.30680   0.32430   0.55230   1.000
    H219    H    0.38240   0.21720   0.56900   1.000
    H220    H    0.36870   0.31760   0.57030   1.000
    C159    C    0.23760   0.15790   0.47260   1.000
    H221    H    0.32080   0.36600   0.45640   1.000
    H222    H    0.38150   0.28560   0.45420   1.000
    C160    C    0.34270   0.24020   0.55140   1.000
    H223    H    0.37990   0.29120   0.56750   1.000
    H224    H    0.31580   0.36970   0.56970   1.000
    Zn1     Zn   0.25000   0.25000   0.83865   1.000
    Zn2     Zn   0.25000   0.25000   0.68555   1.000
    N1      N    0.25000   0.25000   0.94550   1.000
    N2      N    0.25000   0.25000   0.07910   1.000
    Zn3     Zn   0.75000   0.75000   0.66135   1.000
    Zn4     Zn   0.75000   0.75000   0.81445   1.000
    N3      N    0.75000   0.75000   0.55450   1.000
    N4      N    0.75000   0.75000   0.42090   1.000
    Zn5     Zn   0.75000   0.75000   0.16135   1.000
    Zn6     Zn   0.75000   0.75000   0.31445   1.000
    N5      N    0.75000   0.75000   0.05450   1.000
    N6      N    0.75000   0.75000   0.92090   1.000
    Zn7     Zn   0.25000   0.25000   0.33865   1.000
    Zn8     Zn   0.25000   0.25000   0.18555   1.000
    N7      N    0.25000   0.25000   0.44550   1.000
    N8      N    0.25000   0.25000   0.57910   1.000
