data_functionalizedCrystal
_audit_creation_method	'EQeq! by Chris Wilmer'
_symmetry_space_group_name_H-M	'P1'
_symmetry_Int_Tables_number	1
_symmetry_cell_setting	triclinic
loop_
_symmetry_equiv_pos_as_xyz
  x,y,z
_cell_length_a	17.2
_cell_length_b	17.2
_cell_length_c	17.2
_cell_angle_alpha	90
_cell_angle_beta	90
_cell_angle_gamma	90
loop_
_atom_site_label
_atom_site_type_symbol
_atom_site_fract_x
_atom_site_fract_y
_atom_site_fract_z
_atom_site_charge
Mof_C 	C 	0.53	0.1675	0.4379	0.364
Mof_C 	C 	0.532	0.0863	0.436	-0.661
Mof_N 	N 	0.559	0.046	0.367	-1.058
Mof_C 	C 	0.5443	0.998	0.312	0.316
Mof_C 	C 	0.601	0.971	0.249	-0.001
Mof_C 	C 	0.574	0.954	0.175	-0.058
Mof_C 	C 	0.731	0.94	0.209	0.079
Mof_C 	C 	0.68	0.964	0.266	-0.175
Mof_H 	H 	0.5565	0.1933	0.3982	-0.081
Mof_H 	H 	0.5213	0.9586	0.1632	0.046
Mof_H 	H 	0.6076	0.9179	0.0679	0.024
Mof_H 	H 	0.739	0.9062	0.0964	0.035
Mof_H 	H 	0.7839	0.9351	0.2202	-0.008
Mof_H 	H 	0.6976	0.9759	0.3155	0.114
Mof_H 	H 	0.558	0.0587	0.3971	1.085
Mof_C 	C 	0.626	0.93	0.118	-0.008
Mof_C 	C 	0.704	0.922	0.135	-0.063
Mof_C 	C 	0.47	0.8325	0.4379	0.364
Mof_C 	C 	0.468	0.9137	0.436	-0.661
Mof_N 	N 	0.441	0.954	0.367	-1.058
Mof_C 	C 	0.4557	0.002	0.312	0.316
Mof_C 	C 	0.399	0.029	0.249	-0.001
Mof_C 	C 	0.426	0.046	0.175	-0.058
Mof_C 	C 	0.269	0.06	0.209	0.079
Mof_C 	C 	0.32	0.036	0.266	-0.175
Mof_H 	H 	0.4435	0.8067	0.3982	-0.081
Mof_H 	H 	0.4787	0.0414	0.1632	0.046
Mof_H 	H 	0.3924	0.0821	0.0679	0.024
Mof_H 	H 	0.261	0.0938	0.0964	0.035
Mof_H 	H 	0.2161	0.0649	0.2202	-0.008
Mof_H 	H 	0.3024	0.0241	0.3155	0.114
Mof_H 	H 	0.442	0.9413	0.3971	1.085
Mof_C 	C 	0.374	0.07	0.118	-0.008
Mof_C 	C 	0.296	0.078	0.135	-0.063
Mof_C 	C 	0.47	0.1675	0.5621	0.364
Mof_C 	C 	0.468	0.0863	0.564	-0.661
Mof_N 	N 	0.441	0.046	0.633	-1.057
Mof_C 	C 	0.4557	0.998	0.688	0.317
Mof_C 	C 	0.399	0.971	0.751	0
Mof_C 	C 	0.426	0.954	0.825	-0.057
Mof_C 	C 	0.269	0.94	0.791	0.08
Mof_C 	C 	0.32	0.964	0.734	-0.174
Mof_H 	H 	0.4435	0.1933	0.6018	-0.08
Mof_H 	H 	0.4787	0.9586	0.8368	0.047
Mof_H 	H 	0.3924	0.9179	0.9321	0.025
Mof_H 	H 	0.261	0.9062	0.9036	0.036
Mof_H 	H 	0.2161	0.9351	0.7798	-0.007
Mof_H 	H 	0.3024	0.9759	0.6845	0.115
Mof_H 	H 	0.442	0.0587	0.6029	1.086
Mof_C 	C 	0.374	0.93	0.882	-0.007
Mof_C 	C 	0.296	0.922	0.865	-0.062
Mof_C 	C 	0.53	0.8325	0.5621	0.365
Mof_C 	C 	0.532	0.9137	0.564	-0.66
Mof_N 	N 	0.559	0.954	0.633	-1.057
Mof_C 	C 	0.5443	0.002	0.688	0.317
Mof_C 	C 	0.601	0.029	0.751	0
Mof_C 	C 	0.574	0.046	0.825	-0.057
Mof_C 	C 	0.731	0.06	0.791	0.08
Mof_C 	C 	0.68	0.036	0.734	-0.174
Mof_H 	H 	0.5565	0.8067	0.6018	-0.08
Mof_H 	H 	0.5213	0.0414	0.8368	0.047
Mof_H 	H 	0.6076	0.0821	0.9321	0.025
Mof_H 	H 	0.739	0.0938	0.9036	0.036
Mof_H 	H 	0.7839	0.0649	0.7798	-0.007
Mof_H 	H 	0.6976	0.0241	0.6845	0.115
Mof_H 	H 	0.558	0.9413	0.6029	1.086
Mof_C 	C 	0.626	0.07	0.882	-0.007
Mof_C 	C 	0.704	0.078	0.865	-0.062
Mof_C 	C 	0.4379	0.53	0.1675	0.365
Mof_C 	C 	0.436	0.532	0.0863	-0.66
Mof_N 	N 	0.367	0.559	0.046	-1.057
Mof_C 	C 	0.312	0.5443	0.998	0.317
Mof_C 	C 	0.249	0.601	0.971	0
Mof_C 	C 	0.175	0.574	0.954	-0.057
Mof_C 	C 	0.209	0.731	0.94	0.08
Mof_C 	C 	0.266	0.68	0.964	-0.174
Mof_H 	H 	0.3982	0.5565	0.1933	-0.08
Mof_H 	H 	0.1632	0.5213	0.9586	0.047
Mof_H 	H 	0.0679	0.6076	0.9179	0.025
Mof_H 	H 	0.0964	0.739	0.9062	0.036
Mof_H 	H 	0.2202	0.7839	0.9351	-0.007
Mof_H 	H 	0.3155	0.6976	0.9759	0.115
Mof_H 	H 	0.3971	0.558	0.0587	1.086
Mof_C 	C 	0.118	0.626	0.93	-0.007
Mof_C 	C 	0.135	0.704	0.922	-0.062
Mof_C 	C 	0.4379	0.47	0.8325	0.365
Mof_C 	C 	0.436	0.468	0.9137	-0.66
Mof_N 	N 	0.367	0.441	0.954	-1.057
Mof_C 	C 	0.312	0.4557	0.002	0.317
Mof_C 	C 	0.249	0.399	0.029	0
Mof_C 	C 	0.175	0.426	0.046	-0.057
Mof_C 	C 	0.209	0.269	0.06	0.08
Mof_C 	C 	0.266	0.32	0.036	-0.174
Mof_H 	H 	0.3982	0.4435	0.8067	-0.08
Mof_H 	H 	0.1632	0.4787	0.0414	0.047
Mof_H 	H 	0.0679	0.3924	0.0821	0.025
Mof_H 	H 	0.0964	0.261	0.0938	0.036
Mof_H 	H 	0.2202	0.2161	0.0649	-0.007
Mof_H 	H 	0.3155	0.3024	0.0241	0.115
Mof_H 	H 	0.3971	0.442	0.9413	1.086
Mof_C 	C 	0.118	0.374	0.07	-0.007
Mof_C 	C 	0.135	0.296	0.078	-0.062
Mof_C 	C 	0.5621	0.47	0.1675	0.365
Mof_C 	C 	0.564	0.468	0.0863	-0.66
Mof_N 	N 	0.633	0.441	0.046	-1.057
Mof_C 	C 	0.688	0.4557	0.998	0.317
Mof_C 	C 	0.751	0.399	0.971	0
Mof_C 	C 	0.825	0.426	0.954	-0.057
Mof_C 	C 	0.791	0.269	0.94	0.08
Mof_C 	C 	0.734	0.32	0.964	-0.174
Mof_H 	H 	0.6018	0.4435	0.1933	-0.08
Mof_H 	H 	0.8368	0.4787	0.9586	0.047
Mof_H 	H 	0.9321	0.3924	0.9179	0.025
Mof_H 	H 	0.9036	0.261	0.9062	0.036
Mof_H 	H 	0.7798	0.2161	0.9351	-0.007
Mof_H 	H 	0.6845	0.3024	0.9759	0.115
Mof_H 	H 	0.6029	0.442	0.0587	1.086
Mof_C 	C 	0.882	0.374	0.93	-0.007
Mof_C 	C 	0.865	0.296	0.922	-0.062
Mof_C 	C 	0.5621	0.53	0.8325	0.365
Mof_C 	C 	0.564	0.532	0.9137	-0.66
Mof_N 	N 	0.633	0.559	0.954	-1.057
Mof_C 	C 	0.688	0.5443	0.002	0.317
Mof_C 	C 	0.751	0.601	0.029	0
Mof_C 	C 	0.825	0.574	0.046	-0.057
Mof_C 	C 	0.791	0.731	0.06	0.08
Mof_C 	C 	0.734	0.68	0.036	-0.174
Mof_H 	H 	0.6018	0.5565	0.8067	-0.08
Mof_H 	H 	0.8368	0.5213	0.0414	0.047
Mof_H 	H 	0.9321	0.6076	0.0821	0.025
Mof_H 	H 	0.9036	0.739	0.0938	0.036
Mof_H 	H 	0.7798	0.7839	0.0649	-0.007
Mof_H 	H 	0.6845	0.6976	0.0241	0.115
Mof_H 	H 	0.6029	0.558	0.9413	1.086
Mof_C 	C 	0.882	0.626	0.07	-0.007
Mof_C 	C 	0.865	0.704	0.078	-0.062
Mof_C 	C 	0.1675	0.4379	0.53	0.365
Mof_C 	C 	0.0863	0.436	0.532	-0.66
Mof_N 	N 	0.046	0.367	0.559	-1.057
Mof_C 	C 	0.998	0.312	0.5443	0.317
Mof_C 	C 	0.971	0.249	0.601	0
Mof_C 	C 	0.954	0.175	0.574	-0.057
Mof_C 	C 	0.94	0.209	0.731	0.08
Mof_C 	C 	0.964	0.266	0.68	-0.174
Mof_H 	H 	0.1933	0.3982	0.5565	-0.08
Mof_H 	H 	0.9586	0.1632	0.5213	0.047
Mof_H 	H 	0.9179	0.0679	0.6076	0.025
Mof_H 	H 	0.9062	0.0964	0.739	0.036
Mof_H 	H 	0.9351	0.2202	0.7839	-0.007
Mof_H 	H 	0.9759	0.3155	0.6976	0.115
Mof_H 	H 	0.0587	0.3971	0.558	1.086
Mof_C 	C 	0.93	0.118	0.626	-0.007
Mof_C 	C 	0.922	0.135	0.704	-0.062
Mof_C 	C 	0.8325	0.4379	0.47	0.365
Mof_C 	C 	0.9137	0.436	0.468	-0.66
Mof_N 	N 	0.954	0.367	0.441	-1.057
Mof_C 	C 	0.002	0.312	0.4557	0.317
Mof_C 	C 	0.029	0.249	0.399	0
Mof_C 	C 	0.046	0.175	0.426	-0.057
Mof_C 	C 	0.06	0.209	0.269	0.08
Mof_C 	C 	0.036	0.266	0.32	-0.174
Mof_H 	H 	0.8067	0.3982	0.4435	-0.08
Mof_H 	H 	0.0414	0.1632	0.4787	0.047
Mof_H 	H 	0.0821	0.0679	0.3924	0.025
Mof_H 	H 	0.0938	0.0964	0.261	0.036
Mof_H 	H 	0.0649	0.2202	0.2161	-0.007
Mof_H 	H 	0.0241	0.3155	0.3024	0.115
Mof_H 	H 	0.9413	0.3971	0.442	1.086
Mof_C 	C 	0.07	0.118	0.374	-0.007
Mof_C 	C 	0.078	0.135	0.296	-0.062
Mof_C 	C 	0.1675	0.5621	0.47	0.365
Mof_C 	C 	0.0863	0.564	0.468	-0.66
Mof_N 	N 	0.046	0.633	0.441	-1.057
Mof_C 	C 	0.998	0.688	0.4557	0.317
Mof_C 	C 	0.971	0.751	0.399	0
Mof_C 	C 	0.954	0.825	0.426	-0.057
Mof_C 	C 	0.94	0.791	0.269	0.08
Mof_C 	C 	0.964	0.734	0.32	-0.174
Mof_H 	H 	0.1933	0.6018	0.4435	-0.08
Mof_H 	H 	0.9586	0.8368	0.4787	0.047
Mof_H 	H 	0.9179	0.9321	0.3924	0.025
Mof_H 	H 	0.9062	0.9036	0.261	0.036
Mof_H 	H 	0.9351	0.7798	0.2161	-0.007
Mof_H 	H 	0.9759	0.6845	0.3024	0.115
Mof_H 	H 	0.0587	0.6029	0.442	1.086
Mof_C 	C 	0.93	0.882	0.374	-0.007
Mof_C 	C 	0.922	0.865	0.296	-0.062
Mof_C 	C 	0.8325	0.5621	0.53	0.365
Mof_C 	C 	0.9137	0.564	0.532	-0.66
Mof_N 	N 	0.954	0.633	0.559	-1.057
Mof_C 	C 	0.002	0.688	0.5443	0.317
Mof_C 	C 	0.029	0.751	0.601	0
Mof_C 	C 	0.046	0.825	0.574	-0.057
Mof_C 	C 	0.06	0.791	0.731	0.08
Mof_C 	C 	0.036	0.734	0.68	-0.174
Mof_H 	H 	0.8067	0.6018	0.5565	-0.08
Mof_H 	H 	0.0414	0.8368	0.5213	0.047
Mof_H 	H 	0.0821	0.9321	0.6076	0.025
Mof_H 	H 	0.0938	0.9036	0.739	0.036
Mof_H 	H 	0.0649	0.7798	0.7839	-0.007
Mof_H 	H 	0.0241	0.6845	0.6976	0.115
Mof_H 	H 	0.9413	0.6029	0.558	1.086
Mof_C 	C 	0.07	0.882	0.626	-0.007
Mof_C 	C 	0.078	0.865	0.704	-0.062
Mof_C 	C 	0.1675	0.53	0.4379	0.365
Mof_C 	C 	0.0863	0.532	0.436	-0.66
Mof_N 	N 	0.046	0.559	0.367	-1.057
Mof_C 	C 	0.998	0.5443	0.312	0.317
Mof_C 	C 	0.971	0.601	0.249	0
Mof_C 	C 	0.954	0.574	0.175	-0.057
Mof_C 	C 	0.94	0.731	0.209	0.08
Mof_C 	C 	0.964	0.68	0.266	-0.174
Mof_H 	H 	0.1933	0.5565	0.3982	-0.08
Mof_H 	H 	0.9586	0.5213	0.1632	0.047
Mof_H 	H 	0.9179	0.6076	0.0679	0.025
Mof_H 	H 	0.9062	0.739	0.0964	0.036
Mof_H 	H 	0.9351	0.7839	0.2202	-0.007
Mof_H 	H 	0.9759	0.6976	0.3155	0.115
Mof_H 	H 	0.0587	0.558	0.3971	1.086
Mof_C 	C 	0.93	0.626	0.118	-0.007
Mof_C 	C 	0.922	0.704	0.135	-0.062
Mof_C 	C 	0.8325	0.47	0.4379	0.365
Mof_C 	C 	0.9137	0.468	0.436	-0.66
Mof_N 	N 	0.954	0.441	0.367	-1.057
Mof_C 	C 	0.002	0.4557	0.312	0.317
Mof_C 	C 	0.029	0.399	0.249	0
Mof_C 	C 	0.046	0.426	0.175	-0.057
Mof_C 	C 	0.06	0.269	0.209	0.08
Mof_C 	C 	0.036	0.32	0.266	-0.174
Mof_H 	H 	0.8067	0.4435	0.3982	-0.08
Mof_H 	H 	0.0414	0.4787	0.1632	0.047
Mof_H 	H 	0.0821	0.3924	0.0679	0.025
Mof_H 	H 	0.0938	0.261	0.0964	0.036
Mof_H 	H 	0.0649	0.2161	0.2202	-0.007
Mof_H 	H 	0.0241	0.3024	0.3155	0.115
Mof_H 	H 	0.9413	0.442	0.3971	1.086
Mof_C 	C 	0.07	0.374	0.118	-0.007
Mof_C 	C 	0.078	0.296	0.135	-0.062
Mof_C 	C 	0.1675	0.47	0.5621	0.365
Mof_C 	C 	0.0863	0.468	0.564	-0.66
Mof_N 	N 	0.046	0.441	0.633	-1.057
Mof_C 	C 	0.998	0.4557	0.688	0.317
Mof_C 	C 	0.971	0.399	0.751	0
Mof_C 	C 	0.954	0.426	0.825	-0.057
Mof_C 	C 	0.94	0.269	0.791	0.08
Mof_C 	C 	0.964	0.32	0.734	-0.174
Mof_H 	H 	0.1933	0.4435	0.6018	-0.08
Mof_H 	H 	0.9586	0.4787	0.8368	0.047
Mof_H 	H 	0.9179	0.3924	0.9321	0.025
Mof_H 	H 	0.9062	0.261	0.9036	0.036
Mof_H 	H 	0.9351	0.2161	0.7798	-0.007
Mof_H 	H 	0.9759	0.3024	0.6845	0.115
Mof_H 	H 	0.0587	0.442	0.6029	1.086
Mof_C 	C 	0.93	0.374	0.882	-0.007
Mof_C 	C 	0.922	0.296	0.865	-0.062
Mof_C 	C 	0.8325	0.53	0.5621	0.365
Mof_C 	C 	0.9137	0.532	0.564	-0.66
Mof_N 	N 	0.954	0.559	0.633	-1.057
Mof_C 	C 	0.002	0.5443	0.688	0.317
Mof_C 	C 	0.029	0.601	0.751	0
Mof_C 	C 	0.046	0.574	0.825	-0.057
Mof_C 	C 	0.06	0.731	0.791	0.08
Mof_C 	C 	0.036	0.68	0.734	-0.174
Mof_H 	H 	0.8067	0.5565	0.6018	-0.08
Mof_H 	H 	0.0414	0.5213	0.8368	0.047
Mof_H 	H 	0.0821	0.6076	0.9321	0.025
Mof_H 	H 	0.0938	0.739	0.9036	0.036
Mof_H 	H 	0.0649	0.7839	0.7798	-0.007
Mof_H 	H 	0.0241	0.6976	0.6845	0.115
Mof_H 	H 	0.9413	0.558	0.6029	1.086
Mof_C 	C 	0.07	0.626	0.882	-0.007
Mof_C 	C 	0.078	0.704	0.865	-0.062
Mof_C 	C 	0.53	0.4379	0.1675	0.365
Mof_C 	C 	0.532	0.436	0.0863	-0.66
Mof_N 	N 	0.559	0.367	0.046	-1.057
Mof_C 	C 	0.5443	0.312	0.998	0.317
Mof_C 	C 	0.601	0.249	0.971	0
Mof_C 	C 	0.574	0.175	0.954	-0.057
Mof_C 	C 	0.731	0.209	0.94	0.08
Mof_C 	C 	0.68	0.266	0.964	-0.174
Mof_H 	H 	0.5565	0.3982	0.1933	-0.08
Mof_H 	H 	0.5213	0.1632	0.9586	0.047
Mof_H 	H 	0.6076	0.0679	0.9179	0.025
Mof_H 	H 	0.739	0.0964	0.9062	0.036
Mof_H 	H 	0.7839	0.2202	0.9351	-0.007
Mof_H 	H 	0.6976	0.3155	0.9759	0.115
Mof_H 	H 	0.558	0.3971	0.0587	1.086
Mof_C 	C 	0.626	0.118	0.93	-0.007
Mof_C 	C 	0.704	0.135	0.922	-0.062
Mof_C 	C 	0.47	0.4379	0.8325	0.365
Mof_C 	C 	0.468	0.436	0.9137	-0.66
Mof_N 	N 	0.441	0.367	0.954	-1.057
Mof_C 	C 	0.4557	0.312	0.002	0.317
Mof_C 	C 	0.399	0.249	0.029	0
Mof_C 	C 	0.426	0.175	0.046	-0.057
Mof_C 	C 	0.269	0.209	0.06	0.08
Mof_C 	C 	0.32	0.266	0.036	-0.174
Mof_H 	H 	0.4435	0.3982	0.8067	-0.08
Mof_H 	H 	0.4787	0.1632	0.0414	0.047
Mof_H 	H 	0.3924	0.0679	0.0821	0.025
Mof_H 	H 	0.261	0.0964	0.0938	0.036
Mof_H 	H 	0.2161	0.2202	0.0649	-0.007
Mof_H 	H 	0.3024	0.3155	0.0241	0.115
Mof_H 	H 	0.442	0.3971	0.9413	1.086
Mof_C 	C 	0.374	0.118	0.07	-0.007
Mof_C 	C 	0.296	0.135	0.078	-0.062
Mof_C 	C 	0.47	0.5621	0.1675	0.365
Mof_C 	C 	0.468	0.564	0.0863	-0.66
Mof_N 	N 	0.441	0.633	0.046	-1.057
Mof_C 	C 	0.4557	0.688	0.998	0.317
Mof_C 	C 	0.399	0.751	0.971	0
Mof_C 	C 	0.426	0.825	0.954	-0.057
Mof_C 	C 	0.269	0.791	0.94	0.08
Mof_C 	C 	0.32	0.734	0.964	-0.174
Mof_H 	H 	0.4435	0.6018	0.1933	-0.08
Mof_H 	H 	0.4787	0.8368	0.9586	0.047
Mof_H 	H 	0.3924	0.9321	0.9179	0.025
Mof_H 	H 	0.261	0.9036	0.9062	0.036
Mof_H 	H 	0.2161	0.7798	0.9351	-0.007
Mof_H 	H 	0.3024	0.6845	0.9759	0.115
Mof_H 	H 	0.442	0.6029	0.0587	1.086
Mof_C 	C 	0.374	0.882	0.93	-0.007
Mof_C 	C 	0.296	0.865	0.922	-0.062
Mof_C 	C 	0.53	0.5621	0.8325	0.365
Mof_C 	C 	0.532	0.564	0.9137	-0.66
Mof_N 	N 	0.559	0.633	0.954	-1.057
Mof_C 	C 	0.5443	0.688	0.002	0.317
Mof_C 	C 	0.601	0.751	0.029	0
Mof_C 	C 	0.574	0.825	0.046	-0.057
Mof_C 	C 	0.731	0.791	0.06	0.08
Mof_C 	C 	0.68	0.734	0.036	-0.174
Mof_H 	H 	0.5565	0.6018	0.8067	-0.08
Mof_H 	H 	0.5213	0.8368	0.0414	0.047
Mof_H 	H 	0.6076	0.9321	0.0821	0.025
Mof_H 	H 	0.739	0.9036	0.0938	0.036
Mof_H 	H 	0.7839	0.7798	0.0649	-0.007
Mof_H 	H 	0.6976	0.6845	0.0241	0.115
Mof_H 	H 	0.558	0.6029	0.9413	1.086
Mof_C 	C 	0.626	0.882	0.07	-0.007
Mof_C 	C 	0.704	0.865	0.078	-0.062
Mof_C 	C 	0.4379	0.1675	0.53	0.365
Mof_C 	C 	0.436	0.0863	0.532	-0.66
Mof_N 	N 	0.367	0.046	0.559	-1.057
Mof_C 	C 	0.312	0.998	0.5443	0.317
Mof_C 	C 	0.249	0.971	0.601	0
Mof_C 	C 	0.175	0.954	0.574	-0.057
Mof_C 	C 	0.209	0.94	0.731	0.08
Mof_C 	C 	0.266	0.964	0.68	-0.174
Mof_H 	H 	0.3982	0.1933	0.5565	-0.08
Mof_H 	H 	0.1632	0.9586	0.5213	0.047
Mof_H 	H 	0.0679	0.9179	0.6076	0.025
Mof_H 	H 	0.0964	0.9062	0.739	0.036
Mof_H 	H 	0.2202	0.9351	0.7839	-0.007
Mof_H 	H 	0.3155	0.9759	0.6976	0.115
Mof_H 	H 	0.3971	0.0587	0.558	1.086
Mof_C 	C 	0.118	0.93	0.626	-0.007
Mof_C 	C 	0.135	0.922	0.704	-0.062
Mof_C 	C 	0.4379	0.8325	0.47	0.365
Mof_C 	C 	0.436	0.9137	0.468	-0.66
Mof_N 	N 	0.367	0.954	0.441	-1.057
Mof_C 	C 	0.312	0.002	0.4557	0.317
Mof_C 	C 	0.249	0.029	0.399	0
Mof_C 	C 	0.175	0.046	0.426	-0.057
Mof_C 	C 	0.209	0.06	0.269	0.08
Mof_C 	C 	0.266	0.036	0.32	-0.174
Mof_H 	H 	0.3982	0.8067	0.4435	-0.08
Mof_H 	H 	0.1632	0.0414	0.4787	0.047
Mof_H 	H 	0.0679	0.0821	0.3924	0.025
Mof_H 	H 	0.0964	0.0938	0.261	0.036
Mof_H 	H 	0.2202	0.0649	0.2161	-0.007
Mof_H 	H 	0.3155	0.0241	0.3024	0.115
Mof_H 	H 	0.3971	0.9413	0.442	1.086
Mof_C 	C 	0.118	0.07	0.374	-0.007
Mof_C 	C 	0.135	0.078	0.296	-0.062
Mof_C 	C 	0.5621	0.1675	0.47	0.365
Mof_C 	C 	0.564	0.0863	0.468	-0.66
Mof_N 	N 	0.633	0.046	0.441	-1.057
Mof_C 	C 	0.688	0.998	0.4557	0.317
Mof_C 	C 	0.751	0.971	0.399	0
Mof_C 	C 	0.825	0.954	0.426	-0.057
Mof_C 	C 	0.791	0.94	0.269	0.08
Mof_C 	C 	0.734	0.964	0.32	-0.174
Mof_H 	H 	0.6018	0.1933	0.4435	-0.08
Mof_H 	H 	0.8368	0.9586	0.4787	0.047
Mof_H 	H 	0.9321	0.9179	0.3924	0.025
Mof_H 	H 	0.9036	0.9062	0.261	0.036
Mof_H 	H 	0.7798	0.9351	0.2161	-0.007
Mof_H 	H 	0.6845	0.9759	0.3024	0.115
Mof_H 	H 	0.6029	0.0587	0.442	1.086
Mof_C 	C 	0.882	0.93	0.374	-0.007
Mof_C 	C 	0.865	0.922	0.296	-0.062
Mof_C 	C 	0.5621	0.8325	0.53	0.365
Mof_C 	C 	0.564	0.9137	0.532	-0.66
Mof_N 	N 	0.633	0.954	0.559	-1.057
Mof_C 	C 	0.688	0.002	0.5443	0.317
Mof_C 	C 	0.751	0.029	0.601	0
Mof_C 	C 	0.825	0.046	0.574	-0.057
Mof_C 	C 	0.791	0.06	0.731	0.08
Mof_C 	C 	0.734	0.036	0.68	-0.174
Mof_H 	H 	0.6018	0.8067	0.5565	-0.08
Mof_H 	H 	0.8368	0.0414	0.5213	0.047
Mof_H 	H 	0.9321	0.0821	0.6076	0.025
Mof_H 	H 	0.9036	0.0938	0.739	0.036
Mof_H 	H 	0.7798	0.0649	0.7839	-0.007
Mof_H 	H 	0.6845	0.0241	0.6976	0.115
Mof_H 	H 	0.6029	0.9413	0.558	1.086
Mof_C 	C 	0.882	0.07	0.626	-0.007
Mof_C 	C 	0.865	0.078	0.704	-0.062
Mof_Zn	Zn	0.56546	0.43454	0.43454	1.22
Mof_Zn	Zn	0.43454	0.56546	0.43454	1.22
Mof_Zn	Zn	0.43454	0.43454	0.56546	1.22
Mof_Zn	Zn	0.56546	0.56546	0.56546	1.22
Mof_O 	O 	0.5459	0.3254	0.4541	-0.539
Mof_O 	O 	0.4541	0.6746	0.4541	-0.539
Mof_O 	O 	0.4541	0.3254	0.5459	-0.539
Mof_O 	O 	0.5459	0.6746	0.5459	-0.539
Mof_O 	O 	0.4541	0.5459	0.3254	-0.539
Mof_O 	O 	0.4541	0.4541	0.6746	-0.539
Mof_O 	O 	0.5459	0.4541	0.3254	-0.539
Mof_O 	O 	0.5459	0.5459	0.6746	-0.539
Mof_O 	O 	0.3254	0.4541	0.5459	-0.539
Mof_O 	O 	0.6746	0.4541	0.4541	-0.539
Mof_O 	O 	0.3254	0.5459	0.4541	-0.539
Mof_O 	O 	0.6746	0.5459	0.5459	-0.539
Mof_O 	O 	0.5	0.5	0.5	-0.95
Mof_C 	C 	0.5	0.2886	0.5	0.606
Mof_C 	C 	0.5	0.2076	0.5	-0.63
Mof_C 	C 	0.5	0.0452	0.5	0.585
Mof_C 	C 	0.5	0.7114	0.5	0.606
Mof_C 	C 	0.5	0.7924	0.5	-0.63
Mof_C 	C 	0.5	0.9548	0.5	0.585
Mof_C 	C 	0.5	0.5	0.2886	0.606
Mof_C 	C 	0.5	0.5	0.2076	-0.63
Mof_C 	C 	0.5	0.5	0.0452	0.585
Mof_C 	C 	0.5	0.5	0.7114	0.606
Mof_C 	C 	0.5	0.5	0.7924	-0.63
Mof_C 	C 	0.5	0.5	0.9548	0.585
Mof_C 	C 	0.2886	0.5	0.5	0.606
Mof_C 	C 	0.2076	0.5	0.5	-0.63
Mof_C 	C 	0.0452	0.5	0.5	0.585
Mof_C 	C 	0.7114	0.5	0.5	0.606
Mof_C 	C 	0.7924	0.5	0.5	-0.63
Mof_C 	C 	0.9548	0.5	0.5	0.585
_end
