# CIF file generated by openbabel 2.4.1, see http://openbabel.sf.net
data_I
_chemical_name_common 'OFORUX_clean'
_cell_length_a 7.2112
_cell_length_b 14.4643
_cell_length_c 15.5891
_cell_angle_alpha 117.641
_cell_angle_beta 97.9136
_cell_angle_gamma 90
_space_group_name_H-M_alt 'P 1'
_space_group_name_Hall 'P 1'
loop_
    _symmetry_equiv_pos_as_xyz
    x,y,z
loop_
    _atom_site_label
    _atom_site_type_symbol
    _atom_site_fract_x
    _atom_site_fract_y
    _atom_site_fract_z
    _atom_site_occupancy
    Cd1     Cd   0.25000   0.05975   0.00000   1.000
    Cd2     Cd   0.75000   0.94025   0.00000   1.000
    Cu1     Cu   0.50000   0.00000   0.50000   1.000
    Cu2     Cu   0.00000   0.50000   0.50000   1.000
    H1      H    0.48430   0.65390   0.34560   1.000
    H2      H    0.53660   0.53820   0.40600   1.000
    H3      H    0.62710   0.59400   0.57000   1.000
    H4      H    0.68010   0.77110   0.67640   1.000
    H5      H    0.68530   0.94610   0.70980   1.000
    H6      H    0.74450   0.11020   0.76500   1.000
    H7      H    0.66660   0.16800   0.70520   1.000
    H8      H    0.32950   0.21000   0.70200   1.000
    H9      H    0.07180   0.24360   0.78440   1.000
    H10     H    0.06500   0.19540   0.90440   1.000
    H11     H    0.55050   0.07760   0.86280   1.000
    H12     H    0.01570   0.30830   0.65440   1.000
    H13     H    0.96340   0.13220   0.59400   1.000
    H14     H    0.87290   0.02400   0.43000   1.000
    H15     H    0.81990   0.09470   0.32360   1.000
    H16     H    0.81470   0.23630   0.29020   1.000
    H17     H    0.75550   0.34520   0.23500   1.000
    H18     H    0.83340   0.46280   0.29480   1.000
    H19     H    0.17050   0.50800   0.29800   1.000
    H20     H    0.42820   0.45920   0.21560   1.000
    H21     H    0.43500   0.29100   0.09560   1.000
    H22     H    0.94950   0.21480   0.13720   1.000
    H23     H    0.51570   0.34610   0.65440   1.000
    H24     H    0.46340   0.46180   0.59400   1.000
    H25     H    0.37290   0.40600   0.43000   1.000
    H26     H    0.31990   0.22890   0.32360   1.000
    H27     H    0.31470   0.05390   0.29020   1.000
    H28     H    0.25550   0.88980   0.23500   1.000
    H29     H    0.33340   0.83200   0.29480   1.000
    H30     H    0.67050   0.79000   0.29800   1.000
    H31     H    0.92820   0.75640   0.21560   1.000
    H32     H    0.93500   0.80460   0.09560   1.000
    H33     H    0.44950   0.92240   0.13720   1.000
    H34     H    0.98430   0.69170   0.34560   1.000
    H35     H    0.03660   0.86780   0.40600   1.000
    H36     H    0.12710   0.97600   0.57000   1.000
    H37     H    0.18010   0.90530   0.67640   1.000
    H38     H    0.18530   0.76370   0.70980   1.000
    H39     H    0.24450   0.65480   0.76500   1.000
    H40     H    0.16660   0.53720   0.70520   1.000
    H41     H    0.82950   0.49200   0.70200   1.000
    H42     H    0.57180   0.54080   0.78440   1.000
    H43     H    0.56500   0.70900   0.90440   1.000
    H44     H    0.05050   0.78520   0.86280   1.000
    C1      C    0.54630   0.78894   0.47428   1.000
    C2      C    0.52240   0.67930   0.41260   1.000
    C3      C    0.55370   0.60950   0.44880   1.000
    C4      C    0.60930   0.64240   0.54640   1.000
    C5      C    0.63910   0.74870   0.61020   1.000
    C6      C    0.60850   0.82403   0.57646   1.000
    C7      C    0.63650   0.93118   0.64596   1.000
    C8      C    0.63710   0.11339   0.72178   1.000
    C9      C    0.46870   0.14010   0.77420   1.000
    C10     C    0.32450   0.18997   0.75034   1.000
    C11     C    0.17110   0.21001   0.79962   1.000
    C12     C    0.16730   0.18009   0.87078   1.000
    C13     C    0.45300   0.11139   0.84638   1.000
    C14     C    0.95370   0.31466   0.52572   1.000
    C15     C    0.97760   0.26670   0.58740   1.000
    C16     C    0.94630   0.16070   0.55120   1.000
    C17     C    0.89070   0.09600   0.45360   1.000
    C18     C    0.86090   0.13850   0.38980   1.000
    C19     C    0.89150   0.24757   0.42354   1.000
    C20     C    0.86350   0.28522   0.35404   1.000
    C21     C    0.86290   0.39161   0.27822   1.000
    C22     C    0.03130   0.36590   0.22580   1.000
    C23     C    0.17550   0.43963   0.24966   1.000
    C24     C    0.32890   0.41039   0.20038   1.000
    C25     C    0.33270   0.30931   0.12922   1.000
    C26     C    0.04700   0.26501   0.15362   1.000
    C27     C    0.45370   0.21106   0.52572   1.000
    C28     C    0.47760   0.32070   0.58740   1.000
    C29     C    0.44630   0.39050   0.55120   1.000
    C30     C    0.39070   0.35760   0.45360   1.000
    C31     C    0.36090   0.25130   0.38980   1.000
    C32     C    0.39150   0.17597   0.42354   1.000
    C33     C    0.36350   0.06882   0.35404   1.000
    C34     C    0.36290   0.88661   0.27822   1.000
    C35     C    0.53130   0.85990   0.22580   1.000
    C36     C    0.67550   0.81003   0.24966   1.000
    C37     C    0.82890   0.78999   0.20038   1.000
    C38     C    0.83270   0.81991   0.12922   1.000
    C39     C    0.54700   0.88861   0.15362   1.000
    C40     C    0.04630   0.68534   0.47428   1.000
    C41     C    0.02240   0.73330   0.41260   1.000
    C42     C    0.05370   0.83930   0.44880   1.000
    C43     C    0.10930   0.90400   0.54640   1.000
    C44     C    0.13910   0.86150   0.61020   1.000
    C45     C    0.10850   0.75243   0.57646   1.000
    C46     C    0.13650   0.71478   0.64596   1.000
    C47     C    0.13710   0.60839   0.72178   1.000
    C48     C    0.96870   0.63410   0.77420   1.000
    C49     C    0.82450   0.56037   0.75034   1.000
    C50     C    0.67110   0.58961   0.79962   1.000
    C51     C    0.66730   0.69069   0.87078   1.000
    C52     C    0.95300   0.73499   0.84638   1.000
    N1      N    0.60180   0.01166   0.63112   1.000
    N2      N    0.30370   0.12987   0.89394   1.000
    N3      N    0.89820   0.38054   0.36888   1.000
    N4      N    0.19630   0.23593   0.10606   1.000
    N5      N    0.39820   0.98834   0.36888   1.000
    N6      N    0.69630   0.87013   0.10606   1.000
    N7      N    0.10180   0.61946   0.63112   1.000
    N8      N    0.80370   0.76407   0.89394   1.000
    Cl1     Cl   0.09531   0.99666   0.10590   1.000
    Cl2     Cl   0.40469   0.89076   0.89410   1.000
    Cl3     Cl   0.90469   0.00334   0.89410   1.000
    Cl4     Cl   0.59531   0.10924   0.10590   1.000
    O1      O    0.51590   0.85349   0.43778   1.000
    O2      O    0.98410   0.41571   0.56222   1.000
    O3      O    0.48410   0.14651   0.56222   1.000
    O4      O    0.01590   0.58429   0.43778   1.000
