data_functionalizedCrystal
_audit_creation_method	'EQeq! by Chris Wilmer'
_symmetry_space_group_name_H-M	'P1'
_symmetry_Int_Tables_number	1
_symmetry_cell_setting	triclinic
loop_
_symmetry_equiv_pos_as_xyz
  x,y,z
_cell_length_a	27.406
_cell_length_b	27.406
_cell_length_c	27.406
_cell_angle_alpha	60
_cell_angle_beta	60
_cell_angle_gamma	60
loop_
_atom_site_label
_atom_site_type_symbol
_atom_site_fract_x
_atom_site_fract_y
_atom_site_fract_z
_atom_site_charge
Mof_Zr	Zr	0.56405	0.56405	0.43595	3.214
Mof_Zr	Zr	0.56405	0.43595	0.56405	3.214
Mof_Zr	Zr	0.56405	0.43595	0.43595	3.214
Mof_Zr	Zr	0.43595	0.43595	0.56405	3.214
Mof_Zr	Zr	0.43595	0.56405	0.56405	3.214
Mof_Zr	Zr	0.43595	0.56405	0.43595	3.214
Mof_Zn	Zn	-0	0.5	-0	1.141
Mof_Zn	Zn	0.5	0	-0	1.141
Mof_Zn	Zn	0.5	-3.12427e-17	0.5	1.157
Mof_Zn	Zn	-0	-3.12427e-17	0.5	1.141
Mof_Zn	Zn	-0	0.5	0.5	1.157
Mof_Zn	Zn	0.5	0.5	-0	1.157
Mof_H 	H 	0.107	0.757	0.568	0.081
Mof_H 	H 	0.568	0.107	0.568	0.081
Mof_H 	H 	0.8131	0.4323	0.5677	0.122
Mof_H 	H 	0.432	0.893	0.243	0.075
Mof_H 	H 	0.432	0.432	0.243	0.078
Mof_H 	H 	0.568	0.107	0.757	0.081
Mof_H 	H 	0.757	0.568	0.107	0.081
Mof_H 	H 	0.4247	0.5753	0.2739	0
Mof_H 	H 	0.107	0.568	0.757	0.081
Mof_H 	H 	0.4247	0.7261	0.2739	0
Mof_H 	H 	0.1869	0.8131	0.4323	0.116
Mof_H 	H 	0.568	0.568	0.107	0.081
Mof_H 	H 	0.2739	0.7261	0.5753	0.002
Mof_H 	H 	0.568	0.757	0.107	0.082
Mof_H 	H 	0.4323	0.5677	0.1869	0.114
Mof_H 	H 	0.893	0.432	0.432	0.077
Mof_H 	H 	0.757	0.107	0.568	0.082
Mof_H 	H 	0.8131	0.1869	0.5677	0.12
Mof_H 	H 	0.1869	0.4323	0.5677	0.114
Mof_H 	H 	0.5753	0.7261	0.4247	0.003
Mof_H 	H 	0.8131	0.4323	0.1869	0.117
Mof_H 	H 	0.5677	0.1869	0.4323	0.114
Mof_H 	H 	0.568	0.568	0.757	0.08
Mof_H 	H 	0.757	0.568	0.568	0.08
Mof_H 	H 	0.1869	0.4323	0.8131	0.117
Mof_H 	H 	0.4323	0.5677	0.8131	0.123
Mof_H 	H 	0.5677	0.8131	0.4323	0.123
Mof_H 	H 	0.432	0.243	0.893	0.076
Mof_H 	H 	0.893	0.243	0.432	0.076
Mof_H 	H 	0.5753	0.2739	0.7261	0.003
Mof_H 	H 	0.243	0.432	0.432	0.079
Mof_H 	H 	0.243	0.893	0.432	0.076
Mof_H 	H 	0.4323	0.1869	0.5677	0.114
Mof_H 	H 	0.432	0.893	0.432	0.077
Mof_H 	H 	0.2739	0.4247	0.5753	0.001
Mof_H 	H 	0.5753	0.4247	0.2739	0.001
Mof_H 	H 	0.4323	0.8131	0.1869	0.117
Mof_H 	H 	0.7261	0.5753	0.4247	0.003
Mof_H 	H 	0.4247	0.2739	0.7261	0.001
Mof_H 	H 	0.7261	0.4247	0.5753	0.003
Mof_H 	H 	0.2739	0.5753	0.7261	0.003
Mof_H 	H 	0.8131	0.5677	0.4323	0.123
Mof_H 	H 	0.7261	0.4247	0.2739	0.001
Mof_H 	H 	0.4247	0.7261	0.5753	0.003
Mof_H 	H 	0.8131	0.1869	0.4323	0.117
Mof_H 	H 	0.893	0.432	0.243	0.076
Mof_H 	H 	0.1869	0.8131	0.5677	0.12
Mof_H 	H 	0.5677	0.4323	0.8131	0.123
Mof_H 	H 	0.7261	0.5753	0.2739	0.003
Mof_H 	H 	0.2739	0.4247	0.7261	0.001
Mof_H 	H 	0.4323	0.1869	0.8131	0.117
Mof_H 	H 	0.7261	0.2739	0.4247	0.001
Mof_H 	H 	0.1869	0.5677	0.4323	0.114
Mof_H 	H 	0.4247	0.2739	0.5753	0.001
Mof_H 	H 	0.2739	0.5753	0.4247	0.001
Mof_H 	H 	0.5677	0.1869	0.8131	0.12
Mof_H 	H 	0.5753	0.7261	0.2739	0.003
Mof_H 	H 	0.432	0.243	0.432	0.079
Mof_H 	H 	0.2739	0.7261	0.4247	0.001
Mof_H 	H 	0.4247	0.5753	0.7261	0.003
Mof_H 	H 	0.4323	0.8131	0.5677	0.123
Mof_H 	H 	0.5677	0.8131	0.1869	0.12
Mof_H 	H 	0.7261	0.2739	0.5753	0.003
Mof_H 	H 	0.5677	0.4323	0.1869	0.114
Mof_H 	H 	0.5753	0.2739	0.4247	0.001
Mof_H 	H 	0.243	0.432	0.893	0.076
Mof_H 	H 	0.432	0.432	0.893	0.077
Mof_H 	H 	0.1869	0.5677	0.8131	0.12
Mof_H 	H 	0.8131	0.5677	0.1869	0.12
Mof_H 	H 	0.107	0.568	0.568	0.082
Mof_H 	H 	0.568	0.757	0.568	0.08
Mof_H 	H 	0.5753	0.4247	0.7261	0.003
Mof_C 	C 	0.5	0.5	0.33556	0.428
Mof_C 	C 	0.1326	0.16	0.3914	0.003
Mof_C 	C 	0.915	0.585	0.915	-0.102
Mof_C 	C 	0.1644	0.2716	0.1804	-0.02
Mof_C 	C 	0.14	0.314	0.136	-0.011
Mof_C 	C 	0.5	0.1278	0.8722	-0.208
Mof_C 	C 	0.3836	0.1644	0.2716	-0.012
Mof_C 	C 	0.59	0.864	0.86	0.003
Mof_C 	C 	0.59	0.86	0.686	-0.008
Mof_C 	C 	0.686	0.864	0.86	0.001
Mof_C 	C 	0.864	0.86	0.686	0.001
Mof_C 	C 	0.84	0.684	0.8674	-0.004
Mof_C 	C 	0.5	0.66444	0.33556	0.429
Mof_C 	C 	0.2828	0.5	0.7172	-0.178
Mof_C 	C 	0.314	0.41	0.136	-0.003
Mof_C 	C 	0.8722	0.5	0.5	-0.208
Mof_C 	C 	0.2583	0.4547	0.5453	0.124
Mof_C 	C 	0.41	0.314	0.14	-0.002
Mof_C 	C 	0.4342	0.4342	0.9246	-0.092
Mof_C 	C 	0.864	0.686	0.59	-0.006
Mof_C 	C 	0.686	0.59	0.864	-0.006
Mof_C 	C 	0.41	0.314	0.136	-0.003
Mof_C 	C 	0.2158	0.1718	0.3242	-0.027
Mof_C 	C 	0.795	0.461	0.539	-0.261
Mof_C 	C 	0.1326	0.316	0.16	-0.001
Mof_C 	C 	0.86	0.864	0.59	0.003
Mof_C 	C 	0.844	0.7096	0.652	0.001
Mof_C 	C 	0.539	0.795	0.205	-0.259
Mof_C 	C 	0.9771	0.5673	0.8883	0.1
Mof_C 	C 	0.585	0.915	0.585	-0.087
Mof_C 	C 	0.8674	0.6086	0.84	-0.008
Mof_C 	C 	0.686	0.86	0.59	-0.008
Mof_C 	C 	0.6086	0.84	0.684	-0.004
Mof_C 	C 	0.8674	0.684	0.6086	0.011
Mof_C 	C 	0.3914	0.16	0.1326	0.003
Mof_C 	C 	0.125	0.375	0.125	-0.002
Mof_C 	C 	0.5	0.5	0.1802	0.254
Mof_C 	C 	0.6086	0.8674	0.684	0.011
Mof_C 	C 	0.461	0.795	0.205	-0.259
Mof_C 	C 	0.5673	0.9771	0.8883	0.1
Mof_C 	C 	0.844	0.652	0.7096	0.001
Mof_C 	C 	0.0734	0.532	0.8626	0.126
Mof_C 	C 	0.652	0.7096	0.7944	-0.004
Mof_C 	C 	0.7842	0.6758	0.7118	0.003
Mof_C 	C 	0.205	0.461	0.795	-0.259
Mof_C 	C 	0.9771	0.8883	0.5673	0.1
Mof_C 	C 	0.156	0.2904	0.348	0.017
Mof_C 	C 	0.41	0.136	0.14	-0.014
Mof_C 	C 	0.795	0.539	0.205	-0.259
Mof_C 	C 	0.1326	0.3914	0.316	-0.017
Mof_C 	C 	0.4327	0.1117	0.0229	-0.042
Mof_C 	C 	0.7284	0.8356	0.8196	0.012
Mof_C 	C 	0.1278	0.5	0.8722	-0.208
Mof_C 	C 	0.5658	0.793	0.5658	-0.116
Mof_C 	C 	0.6086	0.684	0.84	-0.004
Mof_C 	C 	0.0229	0.4327	0.1117	-0.042
Mof_C 	C 	0.2828	0.5	0.5	-0.178
Mof_C 	C 	0.33556	0.5	0.66444	0.429
Mof_C 	C 	0.16	0.1326	0.3914	0.003
Mof_C 	C 	0.3242	0.2158	0.1718	-0.027
Mof_C 	C 	0.375	0.375	0.125	0.012
Mof_C 	C 	0.14	0.41	0.136	-0.014
Mof_C 	C 	0.2716	0.1804	0.1644	-0.02
Mof_C 	C 	0.86	0.59	0.686	-0.008
Mof_C 	C 	0.2882	0.2158	0.1718	-0.026
Mof_C 	C 	0.7118	0.6758	0.8282	-0.003
Mof_C 	C 	0.66444	0.5	0.33556	0.429
Mof_C 	C 	0.7096	0.652	0.844	0.001
Mof_C 	C 	0.2716	0.3836	0.1804	-0.006
Mof_C 	C 	0.684	0.6086	0.84	-0.004
Mof_C 	C 	0.1117	0.4327	0.0229	-0.042
Mof_C 	C 	0.1117	0.4327	0.4327	0.017
Mof_C 	C 	0.4342	0.4342	0.207	-0.123
Mof_C 	C 	0.0734	0.8626	0.532	0.126
Mof_C 	C 	0.9246	0.207	0.4342	-0.094
Mof_C 	C 	0.2716	0.1804	0.3836	-0.006
Mof_C 	C 	0.2882	0.1718	0.2158	-0.026
Mof_C 	C 	0.0229	0.4327	0.4327	-0.028
Mof_C 	C 	0.8356	0.8196	0.7284	0.012
Mof_C 	C 	0.1804	0.3836	0.2716	-0.006
Mof_C 	C 	0.684	0.84	0.8674	-0.004
Mof_C 	C 	0.84	0.6086	0.684	-0.004
Mof_C 	C 	0.5453	0.4547	0.7417	0.13
Mof_C 	C 	0.468	0.1374	0.468	0.127
Mof_C 	C 	0.5658	0.0754	0.793	-0.143
Mof_C 	C 	0.59	0.686	0.86	-0.008
Mof_C 	C 	0.316	0.3914	0.1326	-0.017
Mof_C 	C 	0.8196	0.6164	0.8356	0.011
Mof_C 	C 	0.864	0.686	0.86	0.001
Mof_C 	C 	0.59	0.86	0.864	0.003
Mof_C 	C 	0.7417	0.5453	0.4547	0.13
Mof_C 	C 	0.461	0.205	0.539	-0.257
Mof_C 	C 	0.7842	0.7118	0.8282	0.014
Mof_C 	C 	0.8282	0.6758	0.7118	-0.003
Mof_C 	C 	0.5	0.8722	0.1278	-0.208
Mof_C 	C 	0.8626	0.0734	0.532	0.126
Mof_C 	C 	0.6164	0.8356	0.7284	0.004
Mof_C 	C 	0.205	0.795	0.539	-0.259
Mof_C 	C 	0.9246	0.4342	0.4342	-0.092
Mof_C 	C 	0.5	0.5	0.1278	-0.21
Mof_C 	C 	0.59	0.686	0.864	-0.006
Mof_C 	C 	0.5	0.7172	0.5	-0.179
Mof_C 	C 	0.5658	0.793	0.0754	-0.143
Mof_C 	C 	0.795	0.461	0.205	-0.259
Mof_C 	C 	0.4342	0.207	0.9246	-0.094
Mof_C 	C 	0.1802	0.5	0.8198	0.257
Mof_C 	C 	0.6758	0.7842	0.7118	0.003
Mof_C 	C 	0.3914	0.316	0.1326	-0.017
Mof_C 	C 	0.125	0.375	0.375	0.012
Mof_C 	C 	0.0734	0.532	0.532	0.123
Mof_C 	C 	0.5453	0.2583	0.4547	0.124
Mof_C 	C 	0.5673	0.9771	0.5673	0.088
Mof_C 	C 	0.7944	0.844	0.652	-0.021
Mof_C 	C 	0.2904	0.2056	0.348	0.022
Mof_C 	C 	0.4327	0.1117	0.4327	0.017
Mof_C 	C 	0.1117	0.0229	0.4327	-0.042
Mof_C 	C 	0.1326	0.16	0.316	-0.001
Mof_C 	C 	0.2056	0.348	0.2904	0.022
Mof_C 	C 	0.4547	0.2583	0.7417	0.127
Mof_C 	C 	0.7417	0.4547	0.5453	0.13
Mof_C 	C 	0.316	0.16	0.3914	-0.002
Mof_C 	C 	0.5	0.66444	0.5	0.429
Mof_C 	C 	0.5673	0.8883	0.9771	0.1
Mof_C 	C 	0.585	0.585	0.915	-0.087
Mof_C 	C 	0.415	0.415	0.085	-0.065
Mof_C 	C 	0.7118	0.7842	0.8282	0.014
Mof_C 	C 	0.8198	0.5	0.5	0.261
Mof_C 	C 	0.5	0.2828	0.5	-0.178
Mof_C 	C 	0.793	0.5658	0.5658	-0.116
Mof_C 	C 	0.8674	0.84	0.6086	-0.008
Mof_C 	C 	0.1718	0.2158	0.2882	-0.026
Mof_C 	C 	0.085	0.415	0.415	-0.065
Mof_C 	C 	0.4327	0.0229	0.1117	-0.042
Mof_C 	C 	0.5	0.8198	0.1802	0.257
Mof_C 	C 	0.1644	0.1804	0.2716	-0.02
Mof_C 	C 	0.8626	0.532	0.0734	0.126
Mof_C 	C 	0.625	0.625	0.875	0.024
Mof_C 	C 	0.2158	0.3242	0.1718	-0.027
Mof_C 	C 	0.539	0.205	0.795	-0.259
Mof_C 	C 	0.793	0.0754	0.5658	-0.143
Mof_C 	C 	0.0229	0.1117	0.4327	-0.042
Mof_C 	C 	0.4547	0.5453	0.2583	0.124
Mof_C 	C 	0.795	0.205	0.539	-0.259
Mof_C 	C 	0.5	0.2828	0.7172	-0.178
Mof_C 	C 	0.915	0.585	0.585	-0.087
Mof_C 	C 	0.5453	0.7417	0.4547	0.13
Mof_C 	C 	0.2158	0.2882	0.3242	-0.015
Mof_C 	C 	0.1278	0.8722	0.5	-0.208
Mof_C 	C 	0.8282	0.7842	0.6758	0.014
Mof_C 	C 	0.5	0.5	0.7172	-0.179
Mof_C 	C 	0.1326	0.3914	0.16	0.003
Mof_C 	C 	0.8196	0.6164	0.7284	-0.002
Mof_C 	C 	0.6164	0.7284	0.8196	-0.002
Mof_C 	C 	0.348	0.156	0.2056	0.039
Mof_C 	C 	0.864	0.59	0.86	0.003
Mof_C 	C 	0.86	0.686	0.59	-0.008
Mof_C 	C 	0.2882	0.3242	0.2158	-0.015
Mof_C 	C 	0.5658	0.5658	0.793	-0.116
Mof_C 	C 	0.844	0.7096	0.7944	-0.022
Mof_C 	C 	0.468	0.1374	0.9266	0.135
Mof_C 	C 	0.3242	0.2882	0.2158	-0.015
Mof_C 	C 	0.4547	0.7417	0.5453	0.13
Mof_C 	C 	0.9266	0.1374	0.468	0.135
Mof_C 	C 	0.8674	0.84	0.684	-0.004
Mof_C 	C 	0.1804	0.3836	0.1644	-0.019
Mof_C 	C 	0.6086	0.684	0.8674	0.011
Mof_C 	C 	0.652	0.844	0.7944	-0.021
Mof_C 	C 	0.0754	0.5658	0.793	-0.143
Mof_C 	C 	0.59	0.864	0.686	-0.006
Mof_C 	C 	0.3836	0.1644	0.1804	-0.019
Mof_C 	C 	0.8196	0.7284	0.8356	0.012
Mof_C 	C 	0.5	0.5	0.8722	-0.208
Mof_C 	C 	0.66444	0.33556	0.5	0.429
Mof_C 	C 	0.585	0.915	0.915	-0.102
Mof_C 	C 	0.468	0.468	0.9266	0.138
Mof_C 	C 	0.8356	0.7284	0.8196	0.012
Mof_C 	C 	0.461	0.795	0.539	-0.261
Mof_C 	C 	0.4327	0.4327	0.0229	-0.028
Mof_C 	C 	0.66444	0.5	0.5	0.429
Mof_C 	C 	0.7842	0.6758	0.8282	0.014
Mof_C 	C 	0.205	0.539	0.461	-0.257
Mof_C 	C 	0.2882	0.2158	0.3242	-0.015
Mof_C 	C 	0.6758	0.7842	0.8282	0.014
Mof_C 	C 	0.156	0.348	0.2056	0.039
Mof_C 	C 	0.3836	0.1804	0.1644	-0.019
Mof_C 	C 	0.5	0.5	0.66444	0.429
Mof_C 	C 	0.8883	0.5673	0.9771	0.1
Mof_C 	C 	0.468	0.9266	0.1374	0.135
Mof_C 	C 	0.8356	0.8196	0.6164	0.011
Mof_C 	C 	0.1644	0.2716	0.3836	-0.012
Mof_C 	C 	0.205	0.539	0.795	-0.259
Mof_C 	C 	0.085	0.085	0.415	-0.048
Mof_C 	C 	0.84	0.8674	0.6086	-0.008
Mof_C 	C 	0.8198	0.1802	0.5	0.257
Mof_C 	C 	0.8282	0.7118	0.7842	0.014
Mof_C 	C 	0.1374	0.468	0.468	0.127
Mof_C 	C 	0.3914	0.16	0.316	-0.002
Mof_C 	C 	0.375	0.125	0.125	-0.002
Mof_C 	C 	0.5	0.5	0.2828	-0.178
Mof_C 	C 	0.875	0.625	0.875	0.037
Mof_C 	C 	0.4547	0.2583	0.5453	0.124
Mof_C 	C 	0.461	0.539	0.795	-0.261
Mof_C 	C 	0.41	0.136	0.314	-0.003
Mof_C 	C 	0.207	0.9246	0.4342	-0.094
Mof_C 	C 	0.7118	0.7842	0.6758	0.003
Mof_C 	C 	0.1374	0.9266	0.468	0.135
Mof_C 	C 	0.316	0.3914	0.16	-0.002
Mof_C 	C 	0.8626	0.532	0.532	0.133
Mof_C 	C 	0.5673	0.8883	0.5673	0.043
Mof_C 	C 	0.532	0.8626	0.0734	0.126
Mof_C 	C 	0.314	0.14	0.41	-0.002
Mof_C 	C 	0.5	0.33556	0.5	0.428
Mof_C 	C 	0.84	0.684	0.6086	-0.004
Mof_C 	C 	0.205	0.795	0.461	-0.259
Mof_C 	C 	0.2583	0.4547	0.7417	0.127
Mof_C 	C 	0.7096	0.844	0.652	0.001
Mof_C 	C 	0.532	0.532	0.8626	0.133
Mof_C 	C 	0.348	0.2056	0.156	0.039
Mof_C 	C 	0.8883	0.5673	0.5673	0.043
Mof_C 	C 	0.1804	0.2716	0.3836	-0.006
Mof_C 	C 	0.84	0.6086	0.8674	-0.008
Mof_C 	C 	0.8356	0.6164	0.7284	0.004
Mof_C 	C 	0.316	0.1326	0.3914	-0.017
Mof_C 	C 	0.1718	0.3242	0.2158	-0.027
Mof_C 	C 	0.7944	0.652	0.7096	-0.004
Mof_C 	C 	0.539	0.461	0.205	-0.257
Mof_C 	C 	0.1278	0.5	0.5	-0.21
Mof_C 	C 	0.7172	0.5	0.5	-0.179
Mof_C 	C 	0.2904	0.156	0.348	0.017
Mof_C 	C 	0.4547	0.5453	0.7417	0.13
Mof_C 	C 	0.7284	0.8196	0.8356	0.012
Mof_C 	C 	0.1804	0.2716	0.1644	-0.02
Mof_C 	C 	0.8196	0.8356	0.6164	0.011
Mof_C 	C 	0.9246	0.4342	0.207	-0.094
Mof_C 	C 	0.8282	0.6758	0.7842	0.014
Mof_C 	C 	0.8196	0.8356	0.7284	0.012
Mof_C 	C 	0.136	0.14	0.41	-0.014
Mof_C 	C 	0.348	0.156	0.2904	0.017
Mof_C 	C 	0.684	0.6086	0.8674	0.011
Mof_C 	C 	0.16	0.316	0.3914	-0.002
Mof_C 	C 	0.4327	0.4327	0.1117	0.017
Mof_C 	C 	0.2158	0.2882	0.1718	-0.026
Mof_C 	C 	0.156	0.2056	0.2904	0.041
Mof_C 	C 	0.686	0.864	0.59	-0.006
Mof_C 	C 	0.795	0.205	0.461	-0.259
Mof_C 	C 	0.3914	0.1326	0.16	0.003
Mof_C 	C 	0.2583	0.7417	0.4547	0.127
Mof_C 	C 	0.793	0.5658	0.0754	-0.143
Mof_C 	C 	0.4342	0.207	0.4342	-0.123
Mof_C 	C 	0.1718	0.3242	0.2882	-0.009
Mof_C 	C 	0.7417	0.2583	0.4547	0.127
Mof_C 	C 	0.468	0.468	0.1374	0.127
Mof_C 	C 	0.7284	0.8356	0.6164	0.004
Mof_C 	C 	0.348	0.2904	0.156	0.017
Mof_C 	C 	0.136	0.41	0.314	-0.003
Mof_C 	C 	0.6086	0.84	0.8674	-0.008
Mof_C 	C 	0.415	0.085	0.085	-0.048
Mof_C 	C 	0.314	0.136	0.41	-0.003
Mof_C 	C 	0.2904	0.156	0.2056	0.041
Mof_C 	C 	0.348	0.2056	0.2904	0.022
Mof_C 	C 	0.5	0.5	0.8198	0.261
Mof_C 	C 	0.5673	0.5673	0.8883	0.043
Mof_C 	C 	0.684	0.8674	0.6086	0.011
Mof_C 	C 	0.136	0.314	0.14	-0.011
Mof_C 	C 	0.1804	0.1644	0.2716	-0.02
Mof_C 	C 	0.844	0.7944	0.652	-0.021
Mof_C 	C 	0.16	0.316	0.1326	-0.001
Mof_C 	C 	0.6758	0.7118	0.8282	-0.003
Mof_C 	C 	0.7944	0.7096	0.844	-0.022
Mof_C 	C 	0.7118	0.8282	0.7842	0.014
Mof_C 	C 	0.9266	0.468	0.1374	0.135
Mof_C 	C 	0.085	0.415	0.085	-0.048
Mof_C 	C 	0.1644	0.3836	0.1804	-0.019
Mof_C 	C 	0.8883	0.9771	0.5673	0.1
Mof_C 	C 	0.7096	0.844	0.7944	-0.022
Mof_C 	C 	0.684	0.84	0.6086	-0.004
Mof_C 	C 	0.16	0.1326	0.316	-0.001
Mof_C 	C 	0.0754	0.5658	0.5658	-0.145
Mof_C 	C 	0.86	0.686	0.864	0.001
Mof_C 	C 	0.1718	0.2882	0.2158	-0.026
Mof_C 	C 	0.7096	0.7944	0.652	-0.004
Mof_C 	C 	0.2056	0.156	0.2904	0.041
Mof_C 	C 	0.6164	0.8196	0.8356	0.011
Mof_C 	C 	0.686	0.59	0.86	-0.008
Mof_C 	C 	0.652	0.844	0.7096	0.001
Mof_C 	C 	0.8196	0.7284	0.6164	-0.002
Mof_C 	C 	0.2583	0.5453	0.7417	0.128
Mof_C 	C 	0.1644	0.3836	0.2716	-0.012
Mof_C 	C 	0.5453	0.4547	0.2583	0.124
Mof_C 	C 	0.314	0.136	0.14	-0.011
Mof_C 	C 	0.4547	0.7417	0.2583	0.127
Mof_C 	C 	0.844	0.7944	0.7096	-0.022
Mof_C 	C 	0.795	0.539	0.461	-0.261
Mof_C 	C 	0.3242	0.2882	0.1718	-0.009
Mof_C 	C 	0.6758	0.7118	0.7842	0.003
Mof_C 	C 	0.5658	0.0754	0.5658	-0.145
Mof_C 	C 	0.7172	0.2828	0.5	-0.178
Mof_C 	C 	0.625	0.875	0.625	0.024
Mof_C 	C 	0.6758	0.8282	0.7118	-0.003
Mof_C 	C 	0.33556	0.5	0.5	0.428
Mof_C 	C 	0.468	0.9266	0.468	0.138
Mof_C 	C 	0.5	0.7172	0.2828	-0.178
Mof_C 	C 	0.207	0.4342	0.4342	-0.123
Mof_C 	C 	0.532	0.0734	0.532	0.123
Mof_C 	C 	0.2904	0.2056	0.156	0.041
Mof_C 	C 	0.3242	0.2158	0.2882	-0.015
Mof_C 	C 	0.156	0.2056	0.348	0.039
Mof_C 	C 	0.7118	0.6758	0.7842	0.003
Mof_C 	C 	0.156	0.348	0.2904	0.017
Mof_C 	C 	0.2882	0.3242	0.1718	-0.009
Mof_C 	C 	0.2056	0.156	0.348	0.039
Mof_C 	C 	0.1804	0.1644	0.3836	-0.019
Mof_C 	C 	0.1802	0.8198	0.5	0.257
Mof_C 	C 	0.4342	0.9246	0.207	-0.094
Mof_C 	C 	0.6164	0.7284	0.8356	0.004
Mof_C 	C 	0.2882	0.1718	0.3242	-0.009
Mof_C 	C 	0.8722	0.5	0.1278	-0.208
Mof_C 	C 	0.348	0.2904	0.2056	0.022
Mof_C 	C 	0.7284	0.6164	0.8196	-0.002
Mof_C 	C 	0.532	0.532	0.0734	0.123
Mof_C 	C 	0.1802	0.5	0.5	0.254
Mof_C 	C 	0.84	0.8674	0.684	-0.004
Mof_C 	C 	0.316	0.1326	0.16	-0.001
Mof_C 	C 	0.7417	0.4547	0.2583	0.127
Mof_C 	C 	0.461	0.205	0.795	-0.259
Mof_C 	C 	0.8356	0.7284	0.6164	0.004
Mof_C 	C 	0.136	0.314	0.41	-0.003
Mof_C 	C 	0.7842	0.7118	0.6758	0.003
Mof_C 	C 	0.7842	0.8282	0.7118	0.014
Mof_C 	C 	0.3914	0.1326	0.316	-0.017
Mof_C 	C 	0.16	0.3914	0.1326	0.003
Mof_C 	C 	0.652	0.7944	0.844	-0.021
Mof_C 	C 	0.686	0.86	0.864	0.001
Mof_C 	C 	0.8282	0.7118	0.6758	-0.003
Mof_C 	C 	0.2583	0.7417	0.5453	0.128
Mof_C 	C 	0.7096	0.7944	0.844	-0.022
Mof_C 	C 	0.1644	0.1804	0.3836	-0.019
Mof_C 	C 	0.7284	0.8196	0.6164	-0.002
Mof_C 	C 	0.6086	0.8674	0.84	-0.008
Mof_C 	C 	0.2583	0.5453	0.4547	0.124
Mof_C 	C 	0.136	0.41	0.14	-0.014
Mof_C 	C 	0.7944	0.652	0.844	-0.021
Mof_C 	C 	0.915	0.915	0.585	-0.102
Mof_C 	C 	0.7096	0.652	0.7944	-0.004
Mof_C 	C 	0.8674	0.6086	0.684	0.011
Mof_C 	C 	0.5	0.1802	0.8198	0.257
Mof_C 	C 	0.4342	0.9246	0.4342	-0.092
Mof_C 	C 	0.6164	0.8356	0.8196	0.011
Mof_C 	C 	0.532	0.8626	0.532	0.133
Mof_C 	C 	0.539	0.205	0.461	-0.257
Mof_C 	C 	0.14	0.41	0.314	-0.002
Mof_C 	C 	0.3836	0.2716	0.1804	-0.006
Mof_C 	C 	0.5	0.8722	0.5	-0.208
Mof_C 	C 	0.539	0.461	0.795	-0.261
Mof_C 	C 	0.7417	0.2583	0.5453	0.128
Mof_C 	C 	0.2716	0.3836	0.1644	-0.012
Mof_C 	C 	0.5673	0.5673	0.9771	0.088
Mof_C 	C 	0.1718	0.2882	0.3242	-0.009
Mof_C 	C 	0.4327	0.0229	0.4327	-0.028
Mof_C 	C 	0.1326	0.316	0.3914	-0.017
Mof_C 	C 	0.41	0.14	0.136	-0.014
Mof_C 	C 	0.314	0.14	0.136	-0.011
Mof_C 	C 	0.7284	0.6164	0.8356	0.004
Mof_C 	C 	0.156	0.2904	0.2056	0.041
Mof_C 	C 	0.652	0.7944	0.7096	-0.004
Mof_C 	C 	0.9266	0.468	0.468	0.138
Mof_C 	C 	0.7842	0.8282	0.6758	0.014
Mof_C 	C 	0.14	0.136	0.314	-0.011
Mof_C 	C 	0.6758	0.8282	0.7842	0.014
Mof_C 	C 	0.652	0.7096	0.844	0.001
Mof_C 	C 	0.0754	0.793	0.5658	-0.143
Mof_C 	C 	0.461	0.539	0.205	-0.257
Mof_C 	C 	0.7118	0.8282	0.6758	-0.003
Mof_C 	C 	0.14	0.136	0.41	-0.014
Mof_C 	C 	0.625	0.875	0.875	0.037
Mof_C 	C 	0.9771	0.5673	0.5673	0.088
Mof_C 	C 	0.2716	0.1644	0.1804	-0.02
Mof_C 	C 	0.86	0.59	0.864	0.003
Mof_C 	C 	0.7944	0.844	0.7096	-0.022
Mof_C 	C 	0.875	0.875	0.625	0.037
Mof_C 	C 	0.14	0.314	0.41	-0.002
Mof_C 	C 	0.5453	0.7417	0.2583	0.128
Mof_C 	C 	0.5	0.1278	0.5	-0.21
Mof_C 	C 	0.3242	0.1718	0.2158	-0.027
Mof_C 	C 	0.6164	0.8196	0.7284	-0.002
Mof_C 	C 	0.539	0.795	0.461	-0.261
Mof_C 	C 	0.2056	0.2904	0.348	0.022
Mof_C 	C 	0.3836	0.1804	0.2716	-0.006
Mof_C 	C 	0.3836	0.2716	0.1644	-0.012
Mof_C 	C 	0.864	0.59	0.686	-0.006
Mof_C 	C 	0.2904	0.348	0.156	0.017
Mof_C 	C 	0.207	0.4342	0.9246	-0.094
Mof_C 	C 	0.8674	0.684	0.84	-0.004
Mof_C 	C 	0.2158	0.1718	0.2882	-0.026
Mof_C 	C 	0.2904	0.348	0.2056	0.022
Mof_C 	C 	0.1374	0.468	0.9266	0.135
Mof_C 	C 	0.205	0.461	0.539	-0.257
Mof_C 	C 	0.314	0.41	0.14	-0.002
Mof_C 	C 	0.41	0.14	0.314	-0.002
Mof_C 	C 	0.1718	0.2158	0.3242	-0.027
Mof_C 	C 	0.5453	0.2583	0.7417	0.128
Mof_C 	C 	0.5	0.8198	0.5	0.261
Mof_C 	C 	0.3242	0.1718	0.2882	-0.009
Mof_C 	C 	0.2056	0.348	0.156	0.039
Mof_C 	C 	0.8722	0.1278	0.5	-0.208
Mof_C 	C 	0.16	0.3914	0.316	-0.002
Mof_C 	C 	0.5	0.1802	0.5	0.254
Mof_C 	C 	0.5658	0.5658	0.0754	-0.145
Mof_C 	C 	0.375	0.125	0.375	0.012
Mof_C 	C 	0.7417	0.5453	0.2583	0.128
Mof_C 	C 	0.8356	0.6164	0.8196	0.011
Mof_C 	C 	0.2716	0.1644	0.3836	-0.012
Mof_C 	C 	0.2056	0.2904	0.156	0.041
Mof_C 	C 	0.532	0.0734	0.8626	0.126
Mof_C 	C 	0.415	0.085	0.415	-0.065
Mof_C 	C 	0.2828	0.7172	0.5	-0.178
Mof_C 	C 	0.2158	0.3242	0.2882	-0.015
Mof_C 	C 	0.864	0.86	0.59	0.003
Mof_C 	C 	0.8198	0.5	0.1802	0.257
Mof_C 	C 	0.5	0.33556	0.66444	0.429
Mof_C 	C 	0.125	0.125	0.375	-0.002
Mof_C 	C 	0.316	0.16	0.1326	-0.001
Mof_C 	C 	0.7944	0.7096	0.652	-0.004
Mof_C 	C 	0.684	0.8674	0.84	-0.004
Mof_C 	C 	0.7172	0.5	0.2828	-0.178
Mof_C 	C 	0.33556	0.66444	0.5	0.429
Mof_C 	C 	0.3914	0.316	0.16	-0.002
Mof_C 	C 	0.875	0.625	0.625	0.024
Mof_C 	C 	0.8282	0.7842	0.7118	0.014
Mof_C 	C 	0.844	0.652	0.7944	-0.021
Mof_C 	C 	0.136	0.14	0.314	-0.011
Mof_C 	C 	0.86	0.864	0.686	0.001
Mof_N 	N 	0.4671	0.9775	0.4671	-0.254
Mof_N 	N 	0.9775	0.4671	0.0883	-0.257
Mof_N 	N 	0.9775	0.4671	0.4671	-0.254
Mof_N 	N 	0.9117	0.5329	0.0225	-0.315
Mof_N 	N 	0.5329	0.5329	0.0225	-0.324
Mof_N 	N 	0.0883	0.4671	0.4671	-0.295
Mof_N 	N 	0.5329	0.0225	0.9117	-0.315
Mof_N 	N 	0.0883	0.9775	0.4671	-0.257
Mof_N 	N 	0.5329	0.9117	0.5329	-0.283
Mof_N 	N 	0.5329	0.0225	0.5329	-0.324
Mof_N 	N 	0.9775	0.0883	0.4671	-0.257
Mof_N 	N 	0.9117	0.5329	0.5329	-0.283
Mof_N 	N 	0.4671	0.4671	0.0883	-0.295
Mof_N 	N 	0.9117	0.0225	0.5329	-0.315
Mof_N 	N 	0.5329	0.5329	0.9117	-0.283
Mof_N 	N 	0.4671	0.9775	0.0883	-0.257
Mof_N 	N 	0.0225	0.5329	0.5329	-0.324
Mof_N 	N 	0.0883	0.4671	0.9775	-0.257
Mof_N 	N 	0.4671	0.0883	0.4671	-0.295
Mof_N 	N 	0.0225	0.5329	0.9117	-0.315
Mof_N 	N 	0.4671	0.4671	0.9775	-0.254
Mof_N 	N 	0.0225	0.9117	0.5329	-0.315
Mof_N 	N 	0.4671	0.0883	0.9775	-0.257
Mof_N 	N 	0.5329	0.9117	0.0225	-0.315
Mof_O 	O 	0.5314	0.4058	0.5314	-1.243
Mof_O 	O 	0.5314	0.5314	0.5314	-1.243
Mof_O 	O 	0.35802	0.54364	0.45636	-0.601
Mof_O 	O 	0.4686	0.4686	0.4686	-1.243
Mof_O 	O 	0.45636	0.64198	0.35802	-0.601
Mof_O 	O 	0.54364	0.64198	0.45636	-0.6
Mof_O 	O 	0.64198	0.54364	0.35802	-0.601
Mof_O 	O 	0.54364	0.35802	0.64198	-0.601
Mof_O 	O 	0.4058	0.5314	0.5314	-1.243
Mof_O 	O 	0.5314	0.5314	0.4058	-1.243
Mof_O 	O 	0.35802	0.64198	0.45636	-0.601
Mof_O 	O 	0.45636	0.64198	0.54364	-0.6
Mof_O 	O 	0.35802	0.64198	0.54364	-0.601
Mof_O 	O 	0.4686	0.4686	0.5942	-1.243
Mof_O 	O 	0.4686	0.5942	0.4686	-1.243
Mof_O 	O 	0.35802	0.45636	0.64198	-0.601
Mof_O 	O 	0.64198	0.35802	0.45636	-0.601
Mof_O 	O 	0.64198	0.45636	0.54364	-0.6
Mof_O 	O 	0.45636	0.35802	0.54364	-0.601
Mof_O 	O 	0.45636	0.54364	0.35802	-0.601
Mof_O 	O 	0.5942	0.4686	0.4686	-1.243
Mof_O 	O 	0.45636	0.35802	0.64198	-0.601
Mof_O 	O 	0.54364	0.45636	0.35802	-0.601
Mof_O 	O 	0.54364	0.45636	0.64198	-0.6
Mof_O 	O 	0.35802	0.45636	0.54364	-0.601
Mof_O 	O 	0.45636	0.54364	0.64198	-0.6
Mof_O 	O 	0.64198	0.45636	0.35802	-0.601
Mof_O 	O 	0.64198	0.54364	0.45636	-0.6
Mof_O 	O 	0.54364	0.64198	0.35802	-0.601
Mof_O 	O 	0.35802	0.54364	0.64198	-0.601
Mof_O 	O 	0.64198	0.35802	0.54364	-0.601
Mof_O 	O 	0.54364	0.35802	0.45636	-0.601
_end
