# CIF file generated by openbabel 2.4.1, see http://openbabel.sf.net
data_I
_chemical_name_common 'image0'
_cell_length_a 9.469
_cell_length_b 9.469
_cell_length_c 22.233
_cell_angle_alpha 90
_cell_angle_beta 90
_cell_angle_gamma 120
_space_group_name_H-M_alt 'P 1'
_space_group_name_Hall 'P 1'
loop_
    _symmetry_equiv_pos_as_xyz
    x,y,z
loop_
    _atom_site_label
    _atom_site_type_symbol
    _atom_site_fract_x
    _atom_site_fract_y
    _atom_site_fract_z
    _atom_site_occupancy
    C1      C    0.89600   0.85800   0.12510   1.000
    C2      C    0.89500   0.85800   0.06260   1.000
    C3      C    0.11100   0.14100   0.12700   1.000
    C4      C    0.02600   0.88900   0.06460   1.000
    C5      C    0.14200   0.03800   0.12510   1.000
    C6      C    0.14200   0.03700   0.06260   1.000
    C7      C    0.85900   0.97000   0.12700   1.000
    C8      C    0.11100   0.13700   0.06460   1.000
    C9      C    0.96200   0.10400   0.12510   1.000
    C10     C    0.96300   0.10500   0.06260   1.000
    C11     C    0.03000   0.88900   0.12700   1.000
    C12     C    0.86300   0.97400   0.06460   1.000
    C13     C    0.10400   0.14200   0.62510   1.000
    C14     C    0.10500   0.14200   0.56260   1.000
    C15     C    0.88900   0.85900   0.62700   1.000
    C16     C    0.97400   0.11100   0.56460   1.000
    C17     C    0.85800   0.96200   0.62510   1.000
    C18     C    0.85800   0.96300   0.56260   1.000
    C19     C    0.14100   0.03000   0.62700   1.000
    C20     C    0.88900   0.86300   0.56460   1.000
    C21     C    0.03800   0.89600   0.62510   1.000
    C22     C    0.03700   0.89500   0.56260   1.000
    C23     C    0.97000   0.11100   0.62700   1.000
    C24     C    0.13700   0.02600   0.56460   1.000
    C25     C    0.85800   0.89600   0.87490   1.000
    C26     C    0.85800   0.89500   0.93740   1.000
    C27     C    0.14100   0.11100   0.87300   1.000
    C28     C    0.88900   0.02600   0.93540   1.000
    C29     C    0.03800   0.14200   0.87490   1.000
    C30     C    0.03700   0.14200   0.93740   1.000
    C31     C    0.97000   0.85900   0.87300   1.000
    C32     C    0.13700   0.11100   0.93540   1.000
    C33     C    0.10400   0.96200   0.87490   1.000
    C34     C    0.10500   0.96300   0.93740   1.000
    C35     C    0.88900   0.03000   0.87300   1.000
    C36     C    0.97400   0.86300   0.93540   1.000
    C37     C    0.14200   0.10400   0.37490   1.000
    C38     C    0.14200   0.10500   0.43740   1.000
    C39     C    0.85900   0.88900   0.37300   1.000
    C40     C    0.11100   0.97400   0.43540   1.000
    C41     C    0.96200   0.85800   0.37490   1.000
    C42     C    0.96300   0.85800   0.43740   1.000
    C43     C    0.03000   0.14100   0.37300   1.000
    C44     C    0.86300   0.88900   0.43540   1.000
    C45     C    0.89600   0.03800   0.37490   1.000
    C46     C    0.89500   0.03700   0.43740   1.000
    C47     C    0.11100   0.97000   0.37300   1.000
    C48     C    0.02600   0.13700   0.43540   1.000
    C49     C    0.10400   0.14200   0.87490   1.000
    C50     C    0.10500   0.14200   0.93740   1.000
    C51     C    0.88900   0.85900   0.87300   1.000
    C52     C    0.97400   0.11100   0.93540   1.000
    C53     C    0.85800   0.96200   0.87490   1.000
    C54     C    0.85800   0.96300   0.93740   1.000
    C55     C    0.14100   0.03000   0.87300   1.000
    C56     C    0.88900   0.86300   0.93540   1.000
    C57     C    0.03800   0.89600   0.87490   1.000
    C58     C    0.03700   0.89500   0.93740   1.000
    C59     C    0.97000   0.11100   0.87300   1.000
    C60     C    0.13700   0.02600   0.93540   1.000
    C61     C    0.89600   0.85800   0.37490   1.000
    C62     C    0.89500   0.85800   0.43740   1.000
    C63     C    0.11100   0.14100   0.37300   1.000
    C64     C    0.02600   0.88900   0.43540   1.000
    C65     C    0.14200   0.03800   0.37490   1.000
    C66     C    0.14200   0.03700   0.43740   1.000
    C67     C    0.85900   0.97000   0.37300   1.000
    C68     C    0.11100   0.13700   0.43540   1.000
    C69     C    0.96200   0.10400   0.37490   1.000
    C70     C    0.96300   0.10500   0.43740   1.000
    C71     C    0.03000   0.88900   0.37300   1.000
    C72     C    0.86300   0.97400   0.43540   1.000
    C73     C    0.14200   0.10400   0.12510   1.000
    C74     C    0.14200   0.10500   0.06260   1.000
    C75     C    0.85900   0.88900   0.12700   1.000
    C76     C    0.11100   0.97400   0.06460   1.000
    C77     C    0.96200   0.85800   0.12510   1.000
    C78     C    0.96300   0.85800   0.06260   1.000
    C79     C    0.03000   0.14100   0.12700   1.000
    C80     C    0.86300   0.88900   0.06460   1.000
    C81     C    0.89600   0.03800   0.12510   1.000
    C82     C    0.89500   0.03700   0.06260   1.000
    C83     C    0.11100   0.97000   0.12700   1.000
    C84     C    0.02600   0.13700   0.06460   1.000
    C85     C    0.85800   0.89600   0.62510   1.000
    C86     C    0.85800   0.89500   0.56260   1.000
    C87     C    0.14100   0.11100   0.62700   1.000
    C88     C    0.88900   0.02600   0.56460   1.000
    C89     C    0.03800   0.14200   0.62510   1.000
    C90     C    0.03700   0.14200   0.56260   1.000
    C91     C    0.97000   0.85900   0.62700   1.000
    C92     C    0.13700   0.11100   0.56460   1.000
    C93     C    0.10400   0.96200   0.62510   1.000
    C94     C    0.10500   0.96300   0.56260   1.000
    C95     C    0.88900   0.03000   0.62700   1.000
    C96     C    0.97400   0.86300   0.56460   1.000
    Ni1     Ni   0.00000   0.00000   0.25000   1.000
    Ni2     Ni   0.00000   0.00000   0.75000   1.000
    O1      O    0.22100   0.22200   0.25000   1.000
    O2      O    0.31900   0.40300   0.25000   1.000
    C97     C    0.35100   0.29000   0.25000   1.000
    C98     C    0.52250   0.33490   0.25000   1.000
    O3      O    0.77800   0.99900   0.25000   1.000
    O4      O    0.59700   0.91600   0.25000   1.000
    C99     C    0.71000   0.06100   0.25000   1.000
    C100    C    0.66510   0.18760   0.25000   1.000
    O5      O    0.00100   0.77900   0.25000   1.000
    O6      O    0.08400   0.68100   0.25000   1.000
    C101    C    0.93900   0.64900   0.25000   1.000
    C102    C    0.81240   0.47750   0.25000   1.000
    O7      O    0.77900   0.77800   0.75000   1.000
    O8      O    0.68100   0.59700   0.75000   1.000
    C103    C    0.64900   0.71000   0.75000   1.000
    C104    C    0.47750   0.66510   0.75000   1.000
    O9      O    0.22200   0.00100   0.75000   1.000
    O10     O    0.40300   0.08400   0.75000   1.000
    C105    C    0.29000   0.93900   0.75000   1.000
    C106    C    0.33490   0.81240   0.75000   1.000
    O11     O    0.99900   0.22100   0.75000   1.000
    O12     O    0.91600   0.31900   0.75000   1.000
    C107    C    0.06100   0.35100   0.75000   1.000
    C108    C    0.18760   0.52250   0.75000   1.000
    O13     O    0.22200   0.22100   0.75000   1.000
    O14     O    0.40300   0.31900   0.75000   1.000
    C109    C    0.29000   0.35100   0.75000   1.000
    C110    C    0.33490   0.52250   0.75000   1.000
    O15     O    0.99900   0.77800   0.75000   1.000
    O16     O    0.91600   0.59700   0.75000   1.000
    C111    C    0.06100   0.71000   0.75000   1.000
    C112    C    0.18760   0.66510   0.75000   1.000
    O17     O    0.77900   0.00100   0.75000   1.000
    O18     O    0.68100   0.08400   0.75000   1.000
    C113    C    0.64900   0.93900   0.75000   1.000
    C114    C    0.47750   0.81240   0.75000   1.000
    O19     O    0.77800   0.77900   0.25000   1.000
    O20     O    0.59700   0.68100   0.25000   1.000
    C115    C    0.71000   0.64900   0.25000   1.000
    C116    C    0.66510   0.47750   0.25000   1.000
    O21     O    0.00100   0.22200   0.25000   1.000
    O22     O    0.08400   0.40300   0.25000   1.000
    C117    C    0.93900   0.29000   0.25000   1.000
    C118    C    0.81240   0.33490   0.25000   1.000
    O23     O    0.22100   0.99900   0.25000   1.000
    O24     O    0.31900   0.91600   0.25000   1.000
    C119    C    0.35100   0.06100   0.25000   1.000
    C120    C    0.52250   0.18760   0.25000   1.000
    C121    C    0.31700   0.15850   0.25000   1.000
    C122    C    0.49200   0.24600   0.25000   1.000
    O25     O    0.24500   0.12250   0.25000   1.000
    C123    C    0.84150   0.15850   0.25000   1.000
    C124    C    0.75400   0.24600   0.25000   1.000
    O26     O    0.87750   0.12250   0.25000   1.000
    C125    C    0.84150   0.68300   0.25000   1.000
    C126    C    0.75400   0.50800   0.25000   1.000
    O27     O    0.87750   0.75500   0.25000   1.000
    C127    C    0.68300   0.84150   0.75000   1.000
    C128    C    0.50800   0.75400   0.75000   1.000
    O28     O    0.75500   0.87750   0.75000   1.000
    C129    C    0.15850   0.84150   0.75000   1.000
    C130    C    0.24600   0.75400   0.75000   1.000
    O29     O    0.12250   0.87750   0.75000   1.000
    C131    C    0.15850   0.31700   0.75000   1.000
    C132    C    0.24600   0.49200   0.75000   1.000
    O30     O    0.12250   0.24500   0.75000   1.000
    C133    C    0.58300   0.41700   0.25000   1.000
    H1      H    0.52510   0.47490   0.25000   1.000
    C134    C    0.58300   0.16600   0.25000   1.000
    H2      H    0.52510   0.05020   0.25000   1.000
    C135    C    0.83400   0.41700   0.25000   1.000
    H3      H    0.94980   0.47490   0.25000   1.000
    C136    C    0.41700   0.58300   0.75000   1.000
    H4      H    0.47490   0.52510   0.75000   1.000
    C137    C    0.41700   0.83400   0.75000   1.000
    H5      H    0.47490   0.94980   0.75000   1.000
    C138    C    0.16600   0.58300   0.75000   1.000
    H6      H    0.05020   0.52510   0.75000   1.000
    N1      N    0.00000   0.00000   0.15650   1.000
    C139    C    0.00000   0.00000   0.03230   1.000
    N2      N    0.00000   0.00000   0.65650   1.000
    C140    C    0.00000   0.00000   0.53230   1.000
    N3      N    0.00000   0.00000   0.84350   1.000
    C141    C    0.00000   0.00000   0.96770   1.000
    N4      N    0.00000   0.00000   0.34350   1.000
    C142    C    0.00000   0.00000   0.46770   1.000
