data_functionalizedCrystal
_audit_creation_method	'EQeq! by Chris Wilmer'
_symmetry_space_group_name_H-M	'P1'
_symmetry_Int_Tables_number	1
_symmetry_cell_setting	triclinic
loop_
_symmetry_equiv_pos_as_xyz
  x,y,z
_cell_length_a	26.7863
_cell_length_b	26.7863
_cell_length_c	26.7863
_cell_angle_alpha	90
_cell_angle_beta	90
_cell_angle_gamma	90
loop_
_atom_site_label
_atom_site_type_symbol
_atom_site_fract_x
_atom_site_fract_y
_atom_site_fract_z
_atom_site_charge
Mof_C 	C 	0.294	0.3554	0.4922	-0.094
Mof_C 	C 	0.2558	0.3204	0.4919	0.025
Mof_H 	H 	0.222	0.3297	0.4865	0.018
Mof_Cl	Cl	0.2761	0.418	0.4819	-0.191
Mof_H 	H 	0.2852	0.3897	0.4866	0.2
Mof_Cl	Cl	0.2783	0.4055	0.5599	-0.25
Mof_H 	H 	0.2959	0.3805	0.5466	0.235
Mof_C 	C 	0.2993	0.3522	0.5249	-0.039
Mof_C 	C 	0.263	0.3145	0.5242	-0.023
Mof_H 	H 	0.2324	0.3201	0.5412	0.06
Mof_C 	C 	0.294	0.8554	0.9922	-0.164
Mof_C 	C 	0.2558	0.8204	0.9919	-0.06
Mof_H 	H 	0.222	0.8297	0.9865	0.188
Mof_Cl	Cl	0.2761	0.918	0.9819	0.022
Mof_H 	H 	0.2852	0.8897	0.9866	0.154
Mof_Cl	Cl	0.2783	0.9055	0.0599	-0.716
Mof_H 	H 	0.2959	0.8805	0.0466	0.517
Mof_C 	C 	0.2993	0.8522	0.0249	-0.245
Mof_C 	C 	0.263	0.8145	0.0242	-0.105
Mof_H 	H 	0.2324	0.8201	0.0412	0.138
Mof_C 	C 	0.794	0.3554	0.9922	-0.105
Mof_C 	C 	0.7558	0.3204	0.9919	-0.042
Mof_H 	H 	0.722	0.3297	0.9865	0.187
Mof_Cl	Cl	0.7761	0.418	0.9819	-0.142
Mof_H 	H 	0.7852	0.3897	0.9866	0.226
Mof_Cl	Cl	0.7783	0.4055	0.0599	-0.329
Mof_H 	H 	0.7959	0.3805	0.0466	0.362
Mof_C 	C 	0.7993	0.3522	0.0249	-0.279
Mof_C 	C 	0.763	0.3145	0.0242	-0.146
Mof_H 	H 	0.7324	0.3201	0.0412	0.152
Mof_C 	C 	0.794	0.8554	0.4922	-0.165
Mof_C 	C 	0.7558	0.8204	0.4919	0.014
Mof_H 	H 	0.722	0.8297	0.4865	0.027
Mof_Cl	Cl	0.7761	0.918	0.4819	-0.048
Mof_H 	H 	0.7852	0.8897	0.4866	0.156
Mof_Cl	Cl	0.7783	0.9055	0.5599	-0.581
Mof_H 	H 	0.7959	0.8805	0.5466	0.358
Mof_C 	C 	0.7993	0.8522	0.5249	0.038
Mof_C 	C 	0.763	0.8145	0.5242	-0.003
Mof_H 	H 	0.7324	0.8201	0.5412	0.06
Mof_C 	C 	0.706	0.6446	0.4922	-0.091
Mof_C 	C 	0.7442	0.6796	0.4919	0.023
Mof_H 	H 	0.778	0.6703	0.4865	0.022
Mof_Cl	Cl	0.7239	0.582	0.4819	-0.186
Mof_H 	H 	0.7148	0.6103	0.4866	0.198
Mof_Cl	Cl	0.7217	0.5945	0.5599	-0.246
Mof_H 	H 	0.7041	0.6195	0.5466	0.235
Mof_C 	C 	0.7007	0.6478	0.5249	-0.037
Mof_C 	C 	0.737	0.6855	0.5242	-0.023
Mof_H 	H 	0.7676	0.6799	0.5412	0.064
Mof_C 	C 	0.706	0.1446	0.9922	-0.062
Mof_C 	C 	0.7442	0.1796	0.9919	-0.047
Mof_H 	H 	0.778	0.1703	0.9865	0.184
Mof_Cl	Cl	0.7239	0.082	0.9819	-0.179
Mof_H 	H 	0.7148	0.1103	0.9866	0.221
Mof_Cl	Cl	0.7217	0.0945	0.0599	-0.227
Mof_H 	H 	0.7041	0.1195	0.0466	0.338
Mof_C 	C 	0.7007	0.1478	0.0249	-0.346
Mof_C 	C 	0.737	0.1855	0.0242	-0.133
Mof_H 	H 	0.7676	0.1799	0.0412	0.145
Mof_C 	C 	0.206	0.6446	0.9922	-0.095
Mof_C 	C 	0.2442	0.6796	0.9919	-0.043
Mof_H 	H 	0.278	0.6703	0.9865	0.187
Mof_Cl	Cl	0.2239	0.582	0.9819	-0.138
Mof_H 	H 	0.2148	0.6103	0.9866	0.219
Mof_Cl	Cl	0.2217	0.5945	0.0599	-0.333
Mof_H 	H 	0.2041	0.6195	0.0466	0.37
Mof_C 	C 	0.2007	0.6478	0.0249	-0.298
Mof_C 	C 	0.237	0.6855	0.0242	-0.145
Mof_H 	H 	0.2676	0.6799	0.0412	0.151
Mof_C 	C 	0.206	0.1446	0.4922	-0.07
Mof_C 	C 	0.2442	0.1796	0.4919	0.03
Mof_H 	H 	0.278	0.1703	0.4865	0.017
Mof_Cl	Cl	0.2239	0.082	0.4819	-0.235
Mof_H 	H 	0.2148	0.1103	0.4866	0.215
Mof_Cl	Cl	0.2217	0.0945	0.5599	-0.146
Mof_H 	H 	0.2041	0.1195	0.5466	0.2
Mof_C 	C 	0.2007	0.1478	0.5249	-0.063
Mof_C 	C 	0.237	0.1855	0.5242	-0.029
Mof_H 	H 	0.2676	0.1799	0.5412	0.063
Mof_C 	C 	0.706	0.3554	0.5078	-0.092
Mof_C 	C 	0.7442	0.3204	0.5081	0.025
Mof_H 	H 	0.778	0.3297	0.5135	0.022
Mof_Cl	Cl	0.7239	0.418	0.5181	-0.186
Mof_H 	H 	0.7148	0.3897	0.5134	0.199
Mof_Cl	Cl	0.7217	0.4055	0.4401	-0.246
Mof_H 	H 	0.7041	0.3805	0.4534	0.235
Mof_C 	C 	0.7007	0.3522	0.4751	-0.036
Mof_C 	C 	0.737	0.3145	0.4758	-0.024
Mof_H 	H 	0.7676	0.3201	0.4588	0.065
Mof_C 	C 	0.706	0.8554	0.0078	-0.048
Mof_C 	C 	0.7442	0.8204	0.0081	0.161
Mof_H 	H 	0.778	0.8297	0.0135	-0.153
Mof_Cl	Cl	0.7239	0.918	0.0181	-0.158
Mof_H 	H 	0.7148	0.8897	0.0134	0.147
Mof_Cl	Cl	0.7217	0.9055	0.9401	-0.277
Mof_H 	H 	0.7041	0.8805	0.9534	0.155
Mof_C 	C 	0.7007	0.8522	0.9751	0.255
Mof_C 	C 	0.737	0.8145	0.9758	0.033
Mof_H 	H 	0.7676	0.8201	0.9588	0.005
Mof_C 	C 	0.206	0.3554	0.0078	0.045
Mof_C 	C 	0.2442	0.3204	0.0081	0.171
Mof_H 	H 	0.278	0.3297	0.0135	-0.17
Mof_Cl	Cl	0.2239	0.418	0.0181	-0.301
Mof_H 	H 	0.2148	0.3897	0.0134	0.173
Mof_Cl	Cl	0.2217	0.4055	0.9401	0.085
Mof_H 	H 	0.2041	0.3805	0.9534	0.028
Mof_C 	C 	0.2007	0.3522	0.9751	0.153
Mof_C 	C 	0.237	0.3145	0.9758	0.039
Mof_H 	H 	0.2676	0.3201	0.9588	-0.006
Mof_C 	C 	0.206	0.8554	0.5078	-0.162
Mof_C 	C 	0.2442	0.8204	0.5081	0.015
Mof_H 	H 	0.278	0.8297	0.5135	0.026
Mof_Cl	Cl	0.2239	0.918	0.5181	-0.037
Mof_H 	H 	0.2148	0.8897	0.5134	0.149
Mof_Cl	Cl	0.2217	0.9055	0.4401	-0.607
Mof_H 	H 	0.2041	0.8805	0.4534	0.373
Mof_C 	C 	0.2007	0.8522	0.4751	0.029
Mof_C 	C 	0.237	0.8145	0.4758	-0
Mof_H 	H 	0.2676	0.8201	0.4588	0.059
Mof_C 	C 	0.294	0.6446	0.5078	-0.092
Mof_C 	C 	0.2558	0.6796	0.5081	0.024
Mof_H 	H 	0.222	0.6703	0.5135	0.02
Mof_Cl	Cl	0.2761	0.582	0.5181	-0.189
Mof_H 	H 	0.2852	0.6103	0.5134	0.2
Mof_Cl	Cl	0.2783	0.5945	0.4401	-0.25
Mof_H 	H 	0.2959	0.6195	0.4534	0.236
Mof_C 	C 	0.2993	0.6478	0.4751	-0.038
Mof_C 	C 	0.263	0.6855	0.4758	-0.021
Mof_H 	H 	0.2324	0.6799	0.4588	0.061
Mof_C 	C 	0.294	0.1446	0.0078	0.061
Mof_C 	C 	0.2558	0.1796	0.0081	0.178
Mof_H 	H 	0.222	0.1703	0.0135	-0.174
Mof_Cl	Cl	0.2761	0.082	0.0181	-0.359
Mof_H 	H 	0.2852	0.1103	0.0134	0.2
Mof_Cl	Cl	0.2783	0.0945	0.9401	0.208
Mof_H 	H 	0.2959	0.1195	0.9534	-0.023
Mof_C 	C 	0.2993	0.1478	0.9751	0.145
Mof_C 	C 	0.263	0.1855	0.9758	0.024
Mof_H 	H 	0.2324	0.1799	0.9588	-0.004
Mof_C 	C 	0.794	0.6446	0.0078	0.041
Mof_C 	C 	0.7558	0.6796	0.0081	0.155
Mof_H 	H 	0.722	0.6703	0.0135	-0.162
Mof_Cl	Cl	0.7761	0.582	0.0181	-0.29
Mof_H 	H 	0.7852	0.6103	0.0134	0.165
Mof_Cl	Cl	0.7783	0.5945	0.9401	0.063
Mof_H 	H 	0.7959	0.6195	0.9534	0.041
Mof_C 	C 	0.7993	0.6478	0.9751	0.136
Mof_C 	C 	0.763	0.6855	0.9758	0.053
Mof_H 	H 	0.7324	0.6799	0.9588	-0.009
Mof_C 	C 	0.794	0.1446	0.5078	-0.08
Mof_C 	C 	0.7558	0.1796	0.5081	0.028
Mof_H 	H 	0.722	0.1703	0.5135	0.019
Mof_Cl	Cl	0.7761	0.082	0.5181	-0.236
Mof_H 	H 	0.7852	0.1103	0.5134	0.221
Mof_Cl	Cl	0.7783	0.0945	0.4401	-0.149
Mof_H 	H 	0.7959	0.1195	0.4534	0.196
Mof_C 	C 	0.7993	0.1478	0.4751	-0.046
Mof_C 	C 	0.763	0.1855	0.4758	-0.03
Mof_H 	H 	0.7324	0.1799	0.4588	0.064
Mof_C 	C 	0.4922	0.294	0.3554	-0.093
Mof_C 	C 	0.4919	0.2558	0.3204	0.026
Mof_H 	H 	0.4865	0.222	0.3297	0.019
Mof_Cl	Cl	0.4819	0.2761	0.418	-0.19
Mof_H 	H 	0.4866	0.2852	0.3897	0.201
Mof_Cl	Cl	0.5599	0.2783	0.4055	-0.249
Mof_H 	H 	0.5466	0.2959	0.3805	0.236
Mof_C 	C 	0.5249	0.2993	0.3522	-0.038
Mof_C 	C 	0.5242	0.263	0.3145	-0.022
Mof_H 	H 	0.5412	0.2324	0.3201	0.061
Mof_C 	C 	0.4922	0.794	0.8554	-0.165
Mof_C 	C 	0.4919	0.7558	0.8204	0.014
Mof_H 	H 	0.4865	0.722	0.8297	0.027
Mof_Cl	Cl	0.4819	0.7761	0.918	-0.048
Mof_H 	H 	0.4866	0.7852	0.8897	0.156
Mof_Cl	Cl	0.5599	0.7783	0.9055	-0.581
Mof_H 	H 	0.5466	0.7959	0.8805	0.358
Mof_C 	C 	0.5249	0.7993	0.8522	0.038
Mof_C 	C 	0.5242	0.763	0.8145	-0.003
Mof_H 	H 	0.5412	0.7324	0.8201	0.06
Mof_C 	C 	0.9922	0.294	0.8554	-0.163
Mof_C 	C 	0.9919	0.2558	0.8204	-0.059
Mof_H 	H 	0.9865	0.222	0.8297	0.189
Mof_Cl	Cl	0.9819	0.2761	0.918	0.023
Mof_H 	H 	0.9866	0.2852	0.8897	0.155
Mof_Cl	Cl	0.0599	0.2783	0.9055	-0.715
Mof_H 	H 	0.0466	0.2959	0.8805	0.518
Mof_C 	C 	0.0249	0.2993	0.8522	-0.244
Mof_C 	C 	0.0242	0.263	0.8145	-0.104
Mof_H 	H 	0.0412	0.2324	0.8201	0.139
Mof_C 	C 	0.9922	0.794	0.3554	-0.104
Mof_C 	C 	0.9919	0.7558	0.3204	-0.042
Mof_H 	H 	0.9865	0.722	0.3297	0.187
Mof_Cl	Cl	0.9819	0.7761	0.418	-0.142
Mof_H 	H 	0.9866	0.7852	0.3897	0.226
Mof_Cl	Cl	0.0599	0.7783	0.4055	-0.329
Mof_H 	H 	0.0466	0.7959	0.3805	0.362
Mof_C 	C 	0.0249	0.7993	0.3522	-0.279
Mof_C 	C 	0.0242	0.763	0.3145	-0.146
Mof_H 	H 	0.0412	0.7324	0.3201	0.152
Mof_C 	C 	0.4922	0.706	0.6446	-0.091
Mof_C 	C 	0.4919	0.7442	0.6796	0.023
Mof_H 	H 	0.4865	0.778	0.6703	0.022
Mof_Cl	Cl	0.4819	0.7239	0.582	-0.186
Mof_H 	H 	0.4866	0.7148	0.6103	0.198
Mof_Cl	Cl	0.5599	0.7217	0.5945	-0.246
Mof_H 	H 	0.5466	0.7041	0.6195	0.235
Mof_C 	C 	0.5249	0.7007	0.6478	-0.037
Mof_C 	C 	0.5242	0.737	0.6855	-0.023
Mof_H 	H 	0.5412	0.7676	0.6799	0.064
Mof_C 	C 	0.4922	0.206	0.1446	-0.07
Mof_C 	C 	0.4919	0.2442	0.1796	0.03
Mof_H 	H 	0.4865	0.278	0.1703	0.017
Mof_Cl	Cl	0.4819	0.2239	0.082	-0.235
Mof_H 	H 	0.4866	0.2148	0.1103	0.215
Mof_Cl	Cl	0.5599	0.2217	0.0945	-0.146
Mof_H 	H 	0.5466	0.2041	0.1195	0.2
Mof_C 	C 	0.5249	0.2007	0.1478	-0.063
Mof_C 	C 	0.5242	0.237	0.1855	-0.029
Mof_H 	H 	0.5412	0.2676	0.1799	0.063
Mof_C 	C 	0.9922	0.706	0.1446	-0.062
Mof_C 	C 	0.9919	0.7442	0.1796	-0.047
Mof_H 	H 	0.9865	0.778	0.1703	0.184
Mof_Cl	Cl	0.9819	0.7239	0.082	-0.179
Mof_H 	H 	0.9866	0.7148	0.1103	0.221
Mof_Cl	Cl	0.0599	0.7217	0.0945	-0.227
Mof_H 	H 	0.0466	0.7041	0.1195	0.338
Mof_C 	C 	0.0249	0.7007	0.1478	-0.346
Mof_C 	C 	0.0242	0.737	0.1855	-0.133
Mof_H 	H 	0.0412	0.7676	0.1799	0.145
Mof_C 	C 	0.9922	0.206	0.6446	-0.095
Mof_C 	C 	0.9919	0.2442	0.6796	-0.043
Mof_H 	H 	0.9865	0.278	0.6703	0.187
Mof_Cl	Cl	0.9819	0.2239	0.582	-0.138
Mof_H 	H 	0.9866	0.2148	0.6103	0.219
Mof_Cl	Cl	0.0599	0.2217	0.5945	-0.333
Mof_H 	H 	0.0466	0.2041	0.6195	0.37
Mof_C 	C 	0.0249	0.2007	0.6478	-0.298
Mof_C 	C 	0.0242	0.237	0.6855	-0.145
Mof_H 	H 	0.0412	0.2676	0.6799	0.151
Mof_C 	C 	0.5078	0.706	0.3554	-0.092
Mof_C 	C 	0.5081	0.7442	0.3204	0.025
Mof_H 	H 	0.5135	0.778	0.3297	0.022
Mof_Cl	Cl	0.5181	0.7239	0.418	-0.186
Mof_H 	H 	0.5134	0.7148	0.3897	0.199
Mof_Cl	Cl	0.4401	0.7217	0.4055	-0.246
Mof_H 	H 	0.4534	0.7041	0.3805	0.235
Mof_C 	C 	0.4751	0.7007	0.3522	-0.036
Mof_C 	C 	0.4758	0.737	0.3145	-0.024
Mof_H 	H 	0.4588	0.7676	0.3201	0.065
Mof_C 	C 	0.5078	0.206	0.8554	-0.162
Mof_C 	C 	0.5081	0.2442	0.8204	0.015
Mof_H 	H 	0.5135	0.278	0.8297	0.026
Mof_Cl	Cl	0.5181	0.2239	0.918	-0.037
Mof_H 	H 	0.5134	0.2148	0.8897	0.149
Mof_Cl	Cl	0.4401	0.2217	0.9055	-0.607
Mof_H 	H 	0.4534	0.2041	0.8805	0.373
Mof_C 	C 	0.4751	0.2007	0.8522	0.029
Mof_C 	C 	0.4758	0.237	0.8145	-0
Mof_H 	H 	0.4588	0.2676	0.8201	0.059
Mof_C 	C 	0.0078	0.706	0.8554	-0.048
Mof_C 	C 	0.0081	0.7442	0.8204	0.161
Mof_H 	H 	0.0135	0.778	0.8297	-0.153
Mof_Cl	Cl	0.0181	0.7239	0.918	-0.158
Mof_H 	H 	0.0134	0.7148	0.8897	0.147
Mof_Cl	Cl	0.9401	0.7217	0.9055	-0.277
Mof_H 	H 	0.9534	0.7041	0.8805	0.155
Mof_C 	C 	0.9751	0.7007	0.8522	0.255
Mof_C 	C 	0.9758	0.737	0.8145	0.033
Mof_H 	H 	0.9588	0.7676	0.8201	0.005
Mof_C 	C 	0.0078	0.206	0.3554	0.045
Mof_C 	C 	0.0081	0.2442	0.3204	0.171
Mof_H 	H 	0.0135	0.278	0.3297	-0.17
Mof_Cl	Cl	0.0181	0.2239	0.418	-0.301
Mof_H 	H 	0.0134	0.2148	0.3897	0.173
Mof_Cl	Cl	0.9401	0.2217	0.4055	0.085
Mof_H 	H 	0.9534	0.2041	0.3805	0.028
Mof_C 	C 	0.9751	0.2007	0.3522	0.153
Mof_C 	C 	0.9758	0.237	0.3145	0.039
Mof_H 	H 	0.9588	0.2676	0.3201	-0.006
Mof_C 	C 	0.5078	0.294	0.6446	-0.092
Mof_C 	C 	0.5081	0.2558	0.6796	0.024
Mof_H 	H 	0.5135	0.222	0.6703	0.02
Mof_Cl	Cl	0.5181	0.2761	0.582	-0.189
Mof_H 	H 	0.5134	0.2852	0.6103	0.2
Mof_Cl	Cl	0.4401	0.2783	0.5945	-0.25
Mof_H 	H 	0.4534	0.2959	0.6195	0.236
Mof_C 	C 	0.4751	0.2993	0.6478	-0.038
Mof_C 	C 	0.4758	0.263	0.6855	-0.021
Mof_H 	H 	0.4588	0.2324	0.6799	0.061
Mof_C 	C 	0.5078	0.794	0.1446	-0.08
Mof_C 	C 	0.5081	0.7558	0.1796	0.028
Mof_H 	H 	0.5135	0.722	0.1703	0.019
Mof_Cl	Cl	0.5181	0.7761	0.082	-0.236
Mof_H 	H 	0.5134	0.7852	0.1103	0.221
Mof_Cl	Cl	0.4401	0.7783	0.0945	-0.149
Mof_H 	H 	0.4534	0.7959	0.1195	0.196
Mof_C 	C 	0.4751	0.7993	0.1478	-0.046
Mof_C 	C 	0.4758	0.763	0.1855	-0.03
Mof_H 	H 	0.4588	0.7324	0.1799	0.064
Mof_C 	C 	0.0078	0.294	0.1446	0.061
Mof_C 	C 	0.0081	0.2558	0.1796	0.178
Mof_H 	H 	0.0135	0.222	0.1703	-0.174
Mof_Cl	Cl	0.0181	0.2761	0.082	-0.359
Mof_H 	H 	0.0134	0.2852	0.1103	0.2
Mof_Cl	Cl	0.9401	0.2783	0.0945	0.208
Mof_H 	H 	0.9534	0.2959	0.1195	-0.023
Mof_C 	C 	0.9751	0.2993	0.1478	0.145
Mof_C 	C 	0.9758	0.263	0.1855	0.024
Mof_H 	H 	0.9588	0.2324	0.1799	-0.004
Mof_C 	C 	0.0078	0.794	0.6446	0.041
Mof_C 	C 	0.0081	0.7558	0.6796	0.155
Mof_H 	H 	0.0135	0.722	0.6703	-0.162
Mof_Cl	Cl	0.0181	0.7761	0.582	-0.29
Mof_H 	H 	0.0134	0.7852	0.6103	0.165
Mof_Cl	Cl	0.9401	0.7783	0.5945	0.063
Mof_H 	H 	0.9534	0.7959	0.6195	0.041
Mof_C 	C 	0.9751	0.7993	0.6478	0.136
Mof_C 	C 	0.9758	0.763	0.6855	0.053
Mof_H 	H 	0.9588	0.7324	0.6799	-0.009
Mof_C 	C 	0.3554	0.4922	0.294	-0.093
Mof_C 	C 	0.3204	0.4919	0.2558	0.026
Mof_H 	H 	0.3297	0.4865	0.222	0.019
Mof_Cl	Cl	0.418	0.4819	0.2761	-0.19
Mof_H 	H 	0.3897	0.4866	0.2852	0.201
Mof_Cl	Cl	0.4055	0.5599	0.2783	-0.249
Mof_H 	H 	0.3805	0.5466	0.2959	0.236
Mof_C 	C 	0.3522	0.5249	0.2993	-0.038
Mof_C 	C 	0.3145	0.5242	0.263	-0.022
Mof_H 	H 	0.3201	0.5412	0.2324	0.061
Mof_C 	C 	0.3554	0.9922	0.794	-0.104
Mof_C 	C 	0.3204	0.9919	0.7558	-0.042
Mof_H 	H 	0.3297	0.9865	0.722	0.187
Mof_Cl	Cl	0.418	0.9819	0.7761	-0.142
Mof_H 	H 	0.3897	0.9866	0.7852	0.226
Mof_Cl	Cl	0.4055	0.0599	0.7783	-0.329
Mof_H 	H 	0.3805	0.0466	0.7959	0.362
Mof_C 	C 	0.3522	0.0249	0.7993	-0.279
Mof_C 	C 	0.3145	0.0242	0.763	-0.146
Mof_H 	H 	0.3201	0.0412	0.7324	0.152
Mof_C 	C 	0.8554	0.4922	0.794	-0.165
Mof_C 	C 	0.8204	0.4919	0.7558	0.014
Mof_H 	H 	0.8297	0.4865	0.722	0.027
Mof_Cl	Cl	0.918	0.4819	0.7761	-0.048
Mof_H 	H 	0.8897	0.4866	0.7852	0.156
Mof_Cl	Cl	0.9055	0.5599	0.7783	-0.581
Mof_H 	H 	0.8805	0.5466	0.7959	0.358
Mof_C 	C 	0.8522	0.5249	0.7993	0.038
Mof_C 	C 	0.8145	0.5242	0.763	-0.003
Mof_H 	H 	0.8201	0.5412	0.7324	0.06
Mof_C 	C 	0.8554	0.9922	0.294	-0.163
Mof_C 	C 	0.8204	0.9919	0.2558	-0.059
Mof_H 	H 	0.8297	0.9865	0.222	0.189
Mof_Cl	Cl	0.918	0.9819	0.2761	0.023
Mof_H 	H 	0.8897	0.9866	0.2852	0.155
Mof_Cl	Cl	0.9055	0.0599	0.2783	-0.715
Mof_H 	H 	0.8805	0.0466	0.2959	0.518
Mof_C 	C 	0.8522	0.0249	0.2993	-0.244
Mof_C 	C 	0.8145	0.0242	0.263	-0.104
Mof_H 	H 	0.8201	0.0412	0.2324	0.139
Mof_C 	C 	0.6446	0.4922	0.706	-0.091
Mof_C 	C 	0.6796	0.4919	0.7442	0.023
Mof_H 	H 	0.6703	0.4865	0.778	0.022
Mof_Cl	Cl	0.582	0.4819	0.7239	-0.186
Mof_H 	H 	0.6103	0.4866	0.7148	0.198
Mof_Cl	Cl	0.5945	0.5599	0.7217	-0.246
Mof_H 	H 	0.6195	0.5466	0.7041	0.235
Mof_C 	C 	0.6478	0.5249	0.7007	-0.037
Mof_C 	C 	0.6855	0.5242	0.737	-0.023
Mof_H 	H 	0.6799	0.5412	0.7676	0.064
Mof_C 	C 	0.6446	0.9922	0.206	-0.095
Mof_C 	C 	0.6796	0.9919	0.2442	-0.043
Mof_H 	H 	0.6703	0.9865	0.278	0.187
Mof_Cl	Cl	0.582	0.9819	0.2239	-0.138
Mof_H 	H 	0.6103	0.9866	0.2148	0.219
Mof_Cl	Cl	0.5945	0.0599	0.2217	-0.333
Mof_H 	H 	0.6195	0.0466	0.2041	0.37
Mof_C 	C 	0.6478	0.0249	0.2007	-0.298
Mof_C 	C 	0.6855	0.0242	0.237	-0.145
Mof_H 	H 	0.6799	0.0412	0.2676	0.151
Mof_C 	C 	0.1446	0.4922	0.206	-0.07
Mof_C 	C 	0.1796	0.4919	0.2442	0.03
Mof_H 	H 	0.1703	0.4865	0.278	0.017
Mof_Cl	Cl	0.082	0.4819	0.2239	-0.235
Mof_H 	H 	0.1103	0.4866	0.2148	0.215
Mof_Cl	Cl	0.0945	0.5599	0.2217	-0.146
Mof_H 	H 	0.1195	0.5466	0.2041	0.2
Mof_C 	C 	0.1478	0.5249	0.2007	-0.063
Mof_C 	C 	0.1855	0.5242	0.237	-0.029
Mof_H 	H 	0.1799	0.5412	0.2676	0.063
Mof_C 	C 	0.1446	0.9922	0.706	-0.062
Mof_C 	C 	0.1796	0.9919	0.7442	-0.047
Mof_H 	H 	0.1703	0.9865	0.778	0.184
Mof_Cl	Cl	0.082	0.9819	0.7239	-0.179
Mof_H 	H 	0.1103	0.9866	0.7148	0.221
Mof_Cl	Cl	0.0945	0.0599	0.7217	-0.227
Mof_H 	H 	0.1195	0.0466	0.7041	0.338
Mof_C 	C 	0.1478	0.0249	0.7007	-0.346
Mof_C 	C 	0.1855	0.0242	0.737	-0.133
Mof_H 	H 	0.1799	0.0412	0.7676	0.145
Mof_C 	C 	0.3554	0.5078	0.706	-0.092
Mof_C 	C 	0.3204	0.5081	0.7442	0.025
Mof_H 	H 	0.3297	0.5135	0.778	0.022
Mof_Cl	Cl	0.418	0.5181	0.7239	-0.186
Mof_H 	H 	0.3897	0.5134	0.7148	0.199
Mof_Cl	Cl	0.4055	0.4401	0.7217	-0.246
Mof_H 	H 	0.3805	0.4534	0.7041	0.235
Mof_C 	C 	0.3522	0.4751	0.7007	-0.036
Mof_C 	C 	0.3145	0.4758	0.737	-0.024
Mof_H 	H 	0.3201	0.4588	0.7676	0.065
Mof_C 	C 	0.3554	0.0078	0.206	0.045
Mof_C 	C 	0.3204	0.0081	0.2442	0.171
Mof_H 	H 	0.3297	0.0135	0.278	-0.17
Mof_Cl	Cl	0.418	0.0181	0.2239	-0.301
Mof_H 	H 	0.3897	0.0134	0.2148	0.173
Mof_Cl	Cl	0.4055	0.9401	0.2217	0.085
Mof_H 	H 	0.3805	0.9534	0.2041	0.028
Mof_C 	C 	0.3522	0.9751	0.2007	0.153
Mof_C 	C 	0.3145	0.9758	0.237	0.039
Mof_H 	H 	0.3201	0.9588	0.2676	-0.006
Mof_C 	C 	0.8554	0.5078	0.206	-0.162
Mof_C 	C 	0.8204	0.5081	0.2442	0.015
Mof_H 	H 	0.8297	0.5135	0.278	0.026
Mof_Cl	Cl	0.918	0.5181	0.2239	-0.037
Mof_H 	H 	0.8897	0.5134	0.2148	0.149
Mof_Cl	Cl	0.9055	0.4401	0.2217	-0.607
Mof_H 	H 	0.8805	0.4534	0.2041	0.373
Mof_C 	C 	0.8522	0.4751	0.2007	0.029
Mof_C 	C 	0.8145	0.4758	0.237	-0
Mof_H 	H 	0.8201	0.4588	0.2676	0.059
Mof_C 	C 	0.8554	0.0078	0.706	-0.048
Mof_C 	C 	0.8204	0.0081	0.7442	0.161
Mof_H 	H 	0.8297	0.0135	0.778	-0.153
Mof_Cl	Cl	0.918	0.0181	0.7239	-0.158
Mof_H 	H 	0.8897	0.0134	0.7148	0.147
Mof_Cl	Cl	0.9055	0.9401	0.7217	-0.277
Mof_H 	H 	0.8805	0.9534	0.7041	0.155
Mof_C 	C 	0.8522	0.9751	0.7007	0.255
Mof_C 	C 	0.8145	0.9758	0.737	0.033
Mof_H 	H 	0.8201	0.9588	0.7676	0.005
Mof_C 	C 	0.6446	0.5078	0.294	-0.092
Mof_C 	C 	0.6796	0.5081	0.2558	0.024
Mof_H 	H 	0.6703	0.5135	0.222	0.02
Mof_Cl	Cl	0.582	0.5181	0.2761	-0.189
Mof_H 	H 	0.6103	0.5134	0.2852	0.2
Mof_Cl	Cl	0.5945	0.4401	0.2783	-0.25
Mof_H 	H 	0.6195	0.4534	0.2959	0.236
Mof_C 	C 	0.6478	0.4751	0.2993	-0.038
Mof_C 	C 	0.6855	0.4758	0.263	-0.021
Mof_H 	H 	0.6799	0.4588	0.2324	0.061
Mof_C 	C 	0.6446	0.0078	0.794	0.041
Mof_C 	C 	0.6796	0.0081	0.7558	0.155
Mof_H 	H 	0.6703	0.0135	0.722	-0.162
Mof_Cl	Cl	0.582	0.0181	0.7761	-0.29
Mof_H 	H 	0.6103	0.0134	0.7852	0.165
Mof_Cl	Cl	0.5945	0.9401	0.7783	0.063
Mof_H 	H 	0.6195	0.9534	0.7959	0.041
Mof_C 	C 	0.6478	0.9751	0.7993	0.136
Mof_C 	C 	0.6855	0.9758	0.763	0.053
Mof_H 	H 	0.6799	0.9588	0.7324	-0.009
Mof_C 	C 	0.1446	0.5078	0.794	-0.08
Mof_C 	C 	0.1796	0.5081	0.7558	0.028
Mof_H 	H 	0.1703	0.5135	0.722	0.019
Mof_Cl	Cl	0.082	0.5181	0.7761	-0.236
Mof_H 	H 	0.1103	0.5134	0.7852	0.221
Mof_Cl	Cl	0.0945	0.4401	0.7783	-0.149
Mof_H 	H 	0.1195	0.4534	0.7959	0.196
Mof_C 	C 	0.1478	0.4751	0.7993	-0.046
Mof_C 	C 	0.1855	0.4758	0.763	-0.03
Mof_H 	H 	0.1799	0.4588	0.7324	0.064
Mof_C 	C 	0.1446	0.0078	0.294	0.061
Mof_C 	C 	0.1796	0.0081	0.2558	0.178
Mof_H 	H 	0.1703	0.0135	0.222	-0.174
Mof_Cl	Cl	0.082	0.0181	0.2761	-0.359
Mof_H 	H 	0.1103	0.0134	0.2852	0.2
Mof_Cl	Cl	0.0945	0.9401	0.2783	0.208
Mof_H 	H 	0.1195	0.9534	0.2959	-0.023
Mof_C 	C 	0.1478	0.9751	0.2993	0.145
Mof_C 	C 	0.1855	0.9758	0.263	0.024
Mof_H 	H 	0.1799	0.9588	0.2324	-0.004
Mof_C 	C 	0.3554	0.294	0.5078	-0.093
Mof_C 	C 	0.3204	0.2558	0.5081	0.026
Mof_H 	H 	0.3297	0.222	0.5135	0.019
Mof_Cl	Cl	0.418	0.2761	0.5181	-0.189
Mof_H 	H 	0.3897	0.2852	0.5134	0.201
Mof_Cl	Cl	0.4055	0.2783	0.4401	-0.249
Mof_H 	H 	0.3805	0.2959	0.4534	0.236
Mof_C 	C 	0.3522	0.2993	0.4751	-0.038
Mof_C 	C 	0.3145	0.263	0.4758	-0.022
Mof_H 	H 	0.3201	0.2324	0.4588	0.061
Mof_C 	C 	0.3554	0.794	0.0078	0.039
Mof_C 	C 	0.3204	0.7558	0.0081	0.16
Mof_H 	H 	0.3297	0.722	0.0135	-0.165
Mof_Cl	Cl	0.418	0.7761	0.0181	-0.29
Mof_H 	H 	0.3897	0.7852	0.0134	0.167
Mof_Cl	Cl	0.4055	0.7783	0.9401	0.059
Mof_H 	H 	0.3805	0.7959	0.9534	0.041
Mof_C 	C 	0.3522	0.7993	0.9751	0.143
Mof_C 	C 	0.3145	0.763	0.9758	0.053
Mof_H 	H 	0.3201	0.7324	0.9588	-0.01
Mof_C 	C 	0.8554	0.294	0.0078	-0.047
Mof_C 	C 	0.8204	0.2558	0.0081	0.164
Mof_H 	H 	0.8297	0.222	0.0135	-0.16
Mof_Cl	Cl	0.918	0.2761	0.0181	-0.159
Mof_H 	H 	0.8897	0.2852	0.0134	0.145
Mof_Cl	Cl	0.9055	0.2783	0.9401	-0.279
Mof_H 	H 	0.8805	0.2959	0.9534	0.156
Mof_C 	C 	0.8522	0.2993	0.9751	0.255
Mof_C 	C 	0.8145	0.263	0.9758	0.039
Mof_H 	H 	0.8201	0.2324	0.9588	0
Mof_C 	C 	0.8554	0.794	0.5078	-0.165
Mof_C 	C 	0.8204	0.7558	0.5081	0.014
Mof_H 	H 	0.8297	0.722	0.5135	0.027
Mof_Cl	Cl	0.918	0.7761	0.5181	-0.051
Mof_H 	H 	0.8897	0.7852	0.5134	0.159
Mof_Cl	Cl	0.9055	0.7783	0.4401	-0.579
Mof_H 	H 	0.8805	0.7959	0.4534	0.356
Mof_C 	C 	0.8522	0.7993	0.4751	0.04
Mof_C 	C 	0.8145	0.763	0.4758	-0.004
Mof_H 	H 	0.8201	0.7324	0.4588	0.061
Mof_C 	C 	0.6446	0.706	0.5078	-0.091
Mof_C 	C 	0.6796	0.7442	0.5081	0.023
Mof_H 	H 	0.6703	0.778	0.5135	0.022
Mof_Cl	Cl	0.582	0.7239	0.5181	-0.186
Mof_H 	H 	0.6103	0.7148	0.5134	0.199
Mof_Cl	Cl	0.5945	0.7217	0.4401	-0.245
Mof_H 	H 	0.6195	0.7041	0.4534	0.234
Mof_C 	C 	0.6478	0.7007	0.4751	-0.037
Mof_C 	C 	0.6855	0.737	0.4758	-0.023
Mof_H 	H 	0.6799	0.7676	0.4588	0.064
Mof_C 	C 	0.6446	0.206	0.0078	0.044
Mof_C 	C 	0.6796	0.2442	0.0081	0.166
Mof_H 	H 	0.6703	0.278	0.0135	-0.167
Mof_Cl	Cl	0.582	0.2239	0.0181	-0.295
Mof_H 	H 	0.6103	0.2148	0.0134	0.17
Mof_Cl	Cl	0.5945	0.2217	0.9401	0.073
Mof_H 	H 	0.6195	0.2041	0.9534	0.034
Mof_C 	C 	0.6478	0.2007	0.9751	0.149
Mof_C 	C 	0.6855	0.237	0.9758	0.041
Mof_H 	H 	0.6799	0.2676	0.9588	-0.006
Mof_C 	C 	0.1446	0.706	0.0078	0.059
Mof_C 	C 	0.1796	0.7442	0.0081	0.175
Mof_H 	H 	0.1703	0.778	0.0135	-0.167
Mof_Cl	Cl	0.082	0.7239	0.0181	-0.356
Mof_H 	H 	0.1103	0.7148	0.0134	0.201
Mof_Cl	Cl	0.0945	0.7217	0.9401	0.208
Mof_H 	H 	0.1195	0.7041	0.9534	-0.023
Mof_C 	C 	0.1478	0.7007	0.9751	0.147
Mof_C 	C 	0.1855	0.737	0.9758	0.019
Mof_H 	H 	0.1799	0.7676	0.9588	0.002
Mof_C 	C 	0.1446	0.206	0.5078	-0.07
Mof_C 	C 	0.1796	0.2442	0.5081	0.03
Mof_H 	H 	0.1703	0.278	0.5135	0.018
Mof_Cl	Cl	0.082	0.2239	0.5181	-0.234
Mof_H 	H 	0.1103	0.2148	0.5134	0.214
Mof_Cl	Cl	0.0945	0.2217	0.4401	-0.147
Mof_H 	H 	0.1195	0.2041	0.4534	0.201
Mof_C 	C 	0.1478	0.2007	0.4751	-0.064
Mof_C 	C 	0.1855	0.237	0.4758	-0.028
Mof_H 	H 	0.1799	0.2676	0.4588	0.063
Mof_C 	C 	0.3554	0.706	0.4922	-0.091
Mof_C 	C 	0.3204	0.7442	0.4919	0.024
Mof_H 	H 	0.3297	0.778	0.4865	0.022
Mof_Cl	Cl	0.418	0.7239	0.4819	-0.185
Mof_H 	H 	0.3897	0.7148	0.4866	0.198
Mof_Cl	Cl	0.4055	0.7217	0.5599	-0.247
Mof_H 	H 	0.3805	0.7041	0.5466	0.236
Mof_C 	C 	0.3522	0.7007	0.5249	-0.038
Mof_C 	C 	0.3145	0.737	0.5242	-0.022
Mof_H 	H 	0.3201	0.7676	0.5412	0.064
Mof_C 	C 	0.3554	0.206	0.9922	-0.093
Mof_C 	C 	0.3204	0.2442	0.9919	-0.043
Mof_H 	H 	0.3297	0.278	0.9865	0.189
Mof_Cl	Cl	0.418	0.2239	0.9819	-0.137
Mof_H 	H 	0.3897	0.2148	0.9866	0.217
Mof_Cl	Cl	0.4055	0.2217	0.0599	-0.33
Mof_H 	H 	0.3805	0.2041	0.0466	0.372
Mof_C 	C 	0.3522	0.2007	0.0249	-0.306
Mof_C 	C 	0.3145	0.237	0.0242	-0.145
Mof_H 	H 	0.3201	0.2676	0.0412	0.152
Mof_C 	C 	0.8554	0.706	0.9922	-0.159
Mof_C 	C 	0.8204	0.7442	0.9919	-0.06
Mof_H 	H 	0.8297	0.778	0.9865	0.187
Mof_Cl	Cl	0.918	0.7239	0.9819	0.025
Mof_H 	H 	0.8897	0.7148	0.9866	0.151
Mof_Cl	Cl	0.9055	0.7217	0.0599	-0.71
Mof_H 	H 	0.8805	0.7041	0.0466	0.515
Mof_C 	C 	0.8522	0.7007	0.0249	-0.243
Mof_C 	C 	0.8145	0.737	0.0242	-0.1
Mof_H 	H 	0.8201	0.7676	0.0412	0.139
Mof_C 	C 	0.8554	0.206	0.4922	-0.168
Mof_C 	C 	0.8204	0.2442	0.4919	0.02
Mof_H 	H 	0.8297	0.278	0.4865	0.026
Mof_Cl	Cl	0.918	0.2239	0.4819	-0.043
Mof_H 	H 	0.8897	0.2148	0.4866	0.159
Mof_Cl	Cl	0.9055	0.2217	0.5599	-0.596
Mof_H 	H 	0.8805	0.2041	0.5466	0.363
Mof_C 	C 	0.8522	0.2007	0.5249	0.046
Mof_C 	C 	0.8145	0.237	0.5242	-0.013
Mof_H 	H 	0.8201	0.2676	0.5412	0.064
Mof_C 	C 	0.6446	0.294	0.4922	-0.093
Mof_C 	C 	0.6796	0.2558	0.4919	0.025
Mof_H 	H 	0.6703	0.222	0.4865	0.02
Mof_Cl	Cl	0.582	0.2761	0.4819	-0.189
Mof_H 	H 	0.6103	0.2852	0.4866	0.201
Mof_Cl	Cl	0.5945	0.2783	0.5599	-0.249
Mof_H 	H 	0.6195	0.2959	0.5466	0.236
Mof_C 	C 	0.6478	0.2993	0.5249	-0.037
Mof_C 	C 	0.6855	0.263	0.5242	-0.022
Mof_H 	H 	0.6799	0.2324	0.5412	0.062
Mof_C 	C 	0.6446	0.794	0.9922	-0.103
Mof_C 	C 	0.6796	0.7558	0.9919	-0.041
Mof_H 	H 	0.6703	0.722	0.9865	0.185
Mof_Cl	Cl	0.582	0.7761	0.9819	-0.148
Mof_H 	H 	0.6103	0.7852	0.9866	0.229
Mof_Cl	Cl	0.5945	0.7783	0.0599	-0.315
Mof_H 	H 	0.6195	0.7959	0.0466	0.355
Mof_C 	C 	0.6478	0.7993	0.0249	-0.274
Mof_C 	C 	0.6855	0.763	0.0242	-0.147
Mof_H 	H 	0.6799	0.7324	0.0412	0.151
Mof_C 	C 	0.1446	0.294	0.9922	-0.065
Mof_C 	C 	0.1796	0.2558	0.9919	-0.045
Mof_H 	H 	0.1703	0.222	0.9865	0.186
Mof_Cl	Cl	0.082	0.2761	0.9819	-0.183
Mof_H 	H 	0.1103	0.2852	0.9866	0.226
Mof_Cl	Cl	0.0945	0.2783	0.0599	-0.229
Mof_H 	H 	0.1195	0.2959	0.0466	0.34
Mof_C 	C 	0.1478	0.2993	0.0249	-0.347
Mof_C 	C 	0.1855	0.263	0.0242	-0.137
Mof_H 	H 	0.1799	0.2324	0.0412	0.146
Mof_C 	C 	0.1446	0.794	0.4922	-0.073
Mof_C 	C 	0.1796	0.7558	0.4919	0.023
Mof_H 	H 	0.1703	0.722	0.4865	0.019
Mof_Cl	Cl	0.082	0.7761	0.4819	-0.228
Mof_H 	H 	0.1103	0.7852	0.4866	0.21
Mof_Cl	Cl	0.0945	0.7783	0.5599	-0.162
Mof_H 	H 	0.1195	0.7959	0.5466	0.207
Mof_C 	C 	0.1478	0.7993	0.5249	-0.065
Mof_C 	C 	0.1855	0.763	0.5242	-0.016
Mof_H 	H 	0.1799	0.7324	0.5412	0.058
Mof_C 	C 	0.294	0.4922	0.6446	-0.093
Mof_C 	C 	0.2558	0.4919	0.6796	0.025
Mof_H 	H 	0.222	0.4865	0.6703	0.02
Mof_Cl	Cl	0.2761	0.4819	0.582	-0.189
Mof_H 	H 	0.2852	0.4866	0.6103	0.201
Mof_Cl	Cl	0.2783	0.5599	0.5945	-0.249
Mof_H 	H 	0.2959	0.5466	0.6195	0.236
Mof_C 	C 	0.2993	0.5249	0.6478	-0.037
Mof_C 	C 	0.263	0.5242	0.6855	-0.022
Mof_H 	H 	0.2324	0.5412	0.6799	0.062
Mof_C 	C 	0.294	0.9922	0.1446	-0.065
Mof_C 	C 	0.2558	0.9919	0.1796	-0.045
Mof_H 	H 	0.222	0.9865	0.1703	0.186
Mof_Cl	Cl	0.2761	0.9819	0.082	-0.183
Mof_H 	H 	0.2852	0.9866	0.1103	0.226
Mof_Cl	Cl	0.2783	0.0599	0.0945	-0.229
Mof_H 	H 	0.2959	0.0466	0.1195	0.34
Mof_C 	C 	0.2993	0.0249	0.1478	-0.347
Mof_C 	C 	0.263	0.0242	0.1855	-0.137
Mof_H 	H 	0.2324	0.0412	0.1799	0.146
Mof_C 	C 	0.794	0.4922	0.1446	-0.073
Mof_C 	C 	0.7558	0.4919	0.1796	0.023
Mof_H 	H 	0.722	0.4865	0.1703	0.019
Mof_Cl	Cl	0.7761	0.4819	0.082	-0.228
Mof_H 	H 	0.7852	0.4866	0.1103	0.21
Mof_Cl	Cl	0.7783	0.5599	0.0945	-0.162
Mof_H 	H 	0.7959	0.5466	0.1195	0.207
Mof_C 	C 	0.7993	0.5249	0.1478	-0.065
Mof_C 	C 	0.763	0.5242	0.1855	-0.016
Mof_H 	H 	0.7324	0.5412	0.1799	0.058
Mof_C 	C 	0.794	0.9922	0.6446	-0.103
Mof_C 	C 	0.7558	0.9919	0.6796	-0.041
Mof_H 	H 	0.722	0.9865	0.6703	0.185
Mof_Cl	Cl	0.7761	0.9819	0.582	-0.148
Mof_H 	H 	0.7852	0.9866	0.6103	0.229
Mof_Cl	Cl	0.7783	0.0599	0.5945	-0.315
Mof_H 	H 	0.7959	0.0466	0.6195	0.355
Mof_C 	C 	0.7993	0.0249	0.6478	-0.274
Mof_C 	C 	0.763	0.0242	0.6855	-0.147
Mof_H 	H 	0.7324	0.0412	0.6799	0.151
Mof_C 	C 	0.706	0.4922	0.3554	-0.091
Mof_C 	C 	0.7442	0.4919	0.3204	0.024
Mof_H 	H 	0.778	0.4865	0.3297	0.022
Mof_Cl	Cl	0.7239	0.4819	0.418	-0.185
Mof_H 	H 	0.7148	0.4866	0.3897	0.198
Mof_Cl	Cl	0.7217	0.5599	0.4055	-0.247
Mof_H 	H 	0.7041	0.5466	0.3805	0.236
Mof_C 	C 	0.7007	0.5249	0.3522	-0.038
Mof_C 	C 	0.737	0.5242	0.3145	-0.022
Mof_H 	H 	0.7676	0.5412	0.3201	0.064
Mof_C 	C 	0.706	0.9922	0.8554	-0.159
Mof_C 	C 	0.7442	0.9919	0.8204	-0.06
Mof_H 	H 	0.778	0.9865	0.8297	0.187
Mof_Cl	Cl	0.7239	0.9819	0.918	0.025
Mof_H 	H 	0.7148	0.9866	0.8897	0.151
Mof_Cl	Cl	0.7217	0.0599	0.9055	-0.71
Mof_H 	H 	0.7041	0.0466	0.8805	0.515
Mof_C 	C 	0.7007	0.0249	0.8522	-0.243
Mof_C 	C 	0.737	0.0242	0.8145	-0.1
Mof_H 	H 	0.7676	0.0412	0.8201	0.139
Mof_C 	C 	0.206	0.4922	0.8554	-0.168
Mof_C 	C 	0.2442	0.4919	0.8204	0.02
Mof_H 	H 	0.278	0.4865	0.8297	0.026
Mof_Cl	Cl	0.2239	0.4819	0.918	-0.043
Mof_H 	H 	0.2148	0.4866	0.8897	0.159
Mof_Cl	Cl	0.2217	0.5599	0.9055	-0.596
Mof_H 	H 	0.2041	0.5466	0.8805	0.363
Mof_C 	C 	0.2007	0.5249	0.8522	0.046
Mof_C 	C 	0.237	0.5242	0.8145	-0.013
Mof_H 	H 	0.2676	0.5412	0.8201	0.064
Mof_C 	C 	0.206	0.9922	0.3554	-0.093
Mof_C 	C 	0.2442	0.9919	0.3204	-0.043
Mof_H 	H 	0.278	0.9865	0.3297	0.189
Mof_Cl	Cl	0.2239	0.9819	0.418	-0.137
Mof_H 	H 	0.2148	0.9866	0.3897	0.217
Mof_Cl	Cl	0.2217	0.0599	0.4055	-0.33
Mof_H 	H 	0.2041	0.0466	0.3805	0.372
Mof_C 	C 	0.2007	0.0249	0.3522	-0.306
Mof_C 	C 	0.237	0.0242	0.3145	-0.145
Mof_H 	H 	0.2676	0.0412	0.3201	0.152
Mof_C 	C 	0.706	0.5078	0.6446	-0.091
Mof_C 	C 	0.7442	0.5081	0.6796	0.023
Mof_H 	H 	0.778	0.5135	0.6703	0.022
Mof_Cl	Cl	0.7239	0.5181	0.582	-0.186
Mof_H 	H 	0.7148	0.5134	0.6103	0.199
Mof_Cl	Cl	0.7217	0.4401	0.5945	-0.245
Mof_H 	H 	0.7041	0.4534	0.6195	0.234
Mof_C 	C 	0.7007	0.4751	0.6478	-0.037
Mof_C 	C 	0.737	0.4758	0.6855	-0.023
Mof_H 	H 	0.7676	0.4588	0.6799	0.064
Mof_C 	C 	0.706	0.0078	0.1446	0.059
Mof_C 	C 	0.7442	0.0081	0.1796	0.175
Mof_H 	H 	0.778	0.0135	0.1703	-0.167
Mof_Cl	Cl	0.7239	0.0181	0.082	-0.356
Mof_H 	H 	0.7148	0.0134	0.1103	0.201
Mof_Cl	Cl	0.7217	0.9401	0.0945	0.208
Mof_H 	H 	0.7041	0.9534	0.1195	-0.023
Mof_C 	C 	0.7007	0.9751	0.1478	0.147
Mof_C 	C 	0.737	0.9758	0.1855	0.019
Mof_H 	H 	0.7676	0.9588	0.1799	0.002
Mof_C 	C 	0.206	0.5078	0.1446	-0.07
Mof_C 	C 	0.2442	0.5081	0.1796	0.03
Mof_H 	H 	0.278	0.5135	0.1703	0.018
Mof_Cl	Cl	0.2239	0.5181	0.082	-0.234
Mof_H 	H 	0.2148	0.5134	0.1103	0.214
Mof_Cl	Cl	0.2217	0.4401	0.0945	-0.147
Mof_H 	H 	0.2041	0.4534	0.1195	0.201
Mof_C 	C 	0.2007	0.4751	0.1478	-0.064
Mof_C 	C 	0.237	0.4758	0.1855	-0.028
Mof_H 	H 	0.2676	0.4588	0.1799	0.063
Mof_C 	C 	0.206	0.0078	0.6446	0.044
Mof_C 	C 	0.2442	0.0081	0.6796	0.166
Mof_H 	H 	0.278	0.0135	0.6703	-0.167
Mof_Cl	Cl	0.2239	0.0181	0.582	-0.295
Mof_H 	H 	0.2148	0.0134	0.6103	0.17
Mof_Cl	Cl	0.2217	0.9401	0.5945	0.073
Mof_H 	H 	0.2041	0.9534	0.6195	0.034
Mof_C 	C 	0.2007	0.9751	0.6478	0.149
Mof_C 	C 	0.237	0.9758	0.6855	0.041
Mof_H 	H 	0.2676	0.9588	0.6799	-0.006
Mof_C 	C 	0.294	0.5078	0.3554	-0.093
Mof_C 	C 	0.2558	0.5081	0.3204	0.026
Mof_H 	H 	0.222	0.5135	0.3297	0.019
Mof_Cl	Cl	0.2761	0.5181	0.418	-0.189
Mof_H 	H 	0.2852	0.5134	0.3897	0.201
Mof_Cl	Cl	0.2783	0.4401	0.4055	-0.249
Mof_H 	H 	0.2959	0.4534	0.3805	0.236
Mof_C 	C 	0.2993	0.4751	0.3522	-0.038
Mof_C 	C 	0.263	0.4758	0.3145	-0.022
Mof_H 	H 	0.2324	0.4588	0.3201	0.061
Mof_C 	C 	0.294	0.0078	0.8554	-0.047
Mof_C 	C 	0.2558	0.0081	0.8204	0.164
Mof_H 	H 	0.222	0.0135	0.8297	-0.16
Mof_Cl	Cl	0.2761	0.0181	0.918	-0.159
Mof_H 	H 	0.2852	0.0134	0.8897	0.145
Mof_Cl	Cl	0.2783	0.9401	0.9055	-0.279
Mof_H 	H 	0.2959	0.9534	0.8805	0.156
Mof_C 	C 	0.2993	0.9751	0.8522	0.255
Mof_C 	C 	0.263	0.9758	0.8145	0.039
Mof_H 	H 	0.2324	0.9588	0.8201	0
Mof_C 	C 	0.794	0.5078	0.8554	-0.165
Mof_C 	C 	0.7558	0.5081	0.8204	0.014
Mof_H 	H 	0.722	0.5135	0.8297	0.027
Mof_Cl	Cl	0.7761	0.5181	0.918	-0.051
Mof_H 	H 	0.7852	0.5134	0.8897	0.159
Mof_Cl	Cl	0.7783	0.4401	0.9055	-0.579
Mof_H 	H 	0.7959	0.4534	0.8805	0.356
Mof_C 	C 	0.7993	0.4751	0.8522	0.04
Mof_C 	C 	0.763	0.4758	0.8145	-0.004
Mof_H 	H 	0.7324	0.4588	0.8201	0.061
Mof_C 	C 	0.794	0.0078	0.3554	0.039
Mof_C 	C 	0.7558	0.0081	0.3204	0.16
Mof_H 	H 	0.722	0.0135	0.3297	-0.165
Mof_Cl	Cl	0.7761	0.0181	0.418	-0.29
Mof_H 	H 	0.7852	0.0134	0.3897	0.167
Mof_Cl	Cl	0.7783	0.9401	0.4055	0.059
Mof_H 	H 	0.7959	0.9534	0.3805	0.041
Mof_C 	C 	0.7993	0.9751	0.3522	0.143
Mof_C 	C 	0.763	0.9758	0.3145	0.053
Mof_H 	H 	0.7324	0.9588	0.3201	-0.01
Mof_C 	C 	0.4922	0.3554	0.706	-0.091
Mof_C 	C 	0.4919	0.3204	0.7442	0.024
Mof_H 	H 	0.4865	0.3297	0.778	0.022
Mof_Cl	Cl	0.4819	0.418	0.7239	-0.185
Mof_H 	H 	0.4866	0.3897	0.7148	0.198
Mof_Cl	Cl	0.5599	0.4055	0.7217	-0.247
Mof_H 	H 	0.5466	0.3805	0.7041	0.236
Mof_C 	C 	0.5249	0.3522	0.7007	-0.038
Mof_C 	C 	0.5242	0.3145	0.737	-0.022
Mof_H 	H 	0.5412	0.3201	0.7676	0.064
Mof_C 	C 	0.4922	0.8554	0.206	-0.168
Mof_C 	C 	0.4919	0.8204	0.2442	0.02
Mof_H 	H 	0.4865	0.8297	0.278	0.026
Mof_Cl	Cl	0.4819	0.918	0.2239	-0.043
Mof_H 	H 	0.4866	0.8897	0.2148	0.159
Mof_Cl	Cl	0.5599	0.9055	0.2217	-0.596
Mof_H 	H 	0.5466	0.8805	0.2041	0.363
Mof_C 	C 	0.5249	0.8522	0.2007	0.046
Mof_C 	C 	0.5242	0.8145	0.237	-0.013
Mof_H 	H 	0.5412	0.8201	0.2676	0.064
Mof_C 	C 	0.9922	0.3554	0.206	-0.093
Mof_C 	C 	0.9919	0.3204	0.2442	-0.043
Mof_H 	H 	0.9865	0.3297	0.278	0.189
Mof_Cl	Cl	0.9819	0.418	0.2239	-0.137
Mof_H 	H 	0.9866	0.3897	0.2148	0.217
Mof_Cl	Cl	0.0599	0.4055	0.2217	-0.33
Mof_H 	H 	0.0466	0.3805	0.2041	0.372
Mof_C 	C 	0.0249	0.3522	0.2007	-0.306
Mof_C 	C 	0.0242	0.3145	0.237	-0.145
Mof_H 	H 	0.0412	0.3201	0.2676	0.152
Mof_C 	C 	0.9922	0.8554	0.706	-0.159
Mof_C 	C 	0.9919	0.8204	0.7442	-0.06
Mof_H 	H 	0.9865	0.8297	0.778	0.187
Mof_Cl	Cl	0.9819	0.918	0.7239	0.025
Mof_H 	H 	0.9866	0.8897	0.7148	0.151
Mof_Cl	Cl	0.0599	0.9055	0.7217	-0.71
Mof_H 	H 	0.0466	0.8805	0.7041	0.515
Mof_C 	C 	0.0249	0.8522	0.7007	-0.243
Mof_C 	C 	0.0242	0.8145	0.737	-0.1
Mof_H 	H 	0.0412	0.8201	0.7676	0.139
Mof_C 	C 	0.4922	0.6446	0.294	-0.093
Mof_C 	C 	0.4919	0.6796	0.2558	0.025
Mof_H 	H 	0.4865	0.6703	0.222	0.02
Mof_Cl	Cl	0.4819	0.582	0.2761	-0.189
Mof_H 	H 	0.4866	0.6103	0.2852	0.201
Mof_Cl	Cl	0.5599	0.5945	0.2783	-0.249
Mof_H 	H 	0.5466	0.6195	0.2959	0.236
Mof_C 	C 	0.5249	0.6478	0.2993	-0.037
Mof_C 	C 	0.5242	0.6855	0.263	-0.022
Mof_H 	H 	0.5412	0.6799	0.2324	0.062
Mof_C 	C 	0.4922	0.1446	0.794	-0.073
Mof_C 	C 	0.4919	0.1796	0.7558	0.023
Mof_H 	H 	0.4865	0.1703	0.722	0.019
Mof_Cl	Cl	0.4819	0.082	0.7761	-0.228
Mof_H 	H 	0.4866	0.1103	0.7852	0.21
Mof_Cl	Cl	0.5599	0.0945	0.7783	-0.162
Mof_H 	H 	0.5466	0.1195	0.7959	0.207
Mof_C 	C 	0.5249	0.1478	0.7993	-0.065
Mof_C 	C 	0.5242	0.1855	0.763	-0.016
Mof_H 	H 	0.5412	0.1799	0.7324	0.058
Mof_C 	C 	0.9922	0.6446	0.794	-0.103
Mof_C 	C 	0.9919	0.6796	0.7558	-0.041
Mof_H 	H 	0.9865	0.6703	0.722	0.185
Mof_Cl	Cl	0.9819	0.582	0.7761	-0.148
Mof_H 	H 	0.9866	0.6103	0.7852	0.229
Mof_Cl	Cl	0.0599	0.5945	0.7783	-0.315
Mof_H 	H 	0.0466	0.6195	0.7959	0.355
Mof_C 	C 	0.0249	0.6478	0.7993	-0.274
Mof_C 	C 	0.0242	0.6855	0.763	-0.147
Mof_H 	H 	0.0412	0.6799	0.7324	0.151
Mof_C 	C 	0.9922	0.1446	0.294	-0.065
Mof_C 	C 	0.9919	0.1796	0.2558	-0.045
Mof_H 	H 	0.9865	0.1703	0.222	0.186
Mof_Cl	Cl	0.9819	0.082	0.2761	-0.183
Mof_H 	H 	0.9866	0.1103	0.2852	0.226
Mof_Cl	Cl	0.0599	0.0945	0.2783	-0.229
Mof_H 	H 	0.0466	0.1195	0.2959	0.34
Mof_C 	C 	0.0249	0.1478	0.2993	-0.347
Mof_C 	C 	0.0242	0.1855	0.263	-0.137
Mof_H 	H 	0.0412	0.1799	0.2324	0.146
Mof_C 	C 	0.5078	0.3554	0.294	-0.093
Mof_C 	C 	0.5081	0.3204	0.2558	0.026
Mof_H 	H 	0.5135	0.3297	0.222	0.019
Mof_Cl	Cl	0.5181	0.418	0.2761	-0.189
Mof_H 	H 	0.5134	0.3897	0.2852	0.201
Mof_Cl	Cl	0.4401	0.4055	0.2783	-0.249
Mof_H 	H 	0.4534	0.3805	0.2959	0.236
Mof_C 	C 	0.4751	0.3522	0.2993	-0.038
Mof_C 	C 	0.4758	0.3145	0.263	-0.022
Mof_H 	H 	0.4588	0.3201	0.2324	0.061
Mof_C 	C 	0.5078	0.8554	0.794	-0.165
Mof_C 	C 	0.5081	0.8204	0.7558	0.014
Mof_H 	H 	0.5135	0.8297	0.722	0.027
Mof_Cl	Cl	0.5181	0.918	0.7761	-0.051
Mof_H 	H 	0.5134	0.8897	0.7852	0.159
Mof_Cl	Cl	0.4401	0.9055	0.7783	-0.579
Mof_H 	H 	0.4534	0.8805	0.7959	0.356
Mof_C 	C 	0.4751	0.8522	0.7993	0.04
Mof_C 	C 	0.4758	0.8145	0.763	-0.004
Mof_H 	H 	0.4588	0.8201	0.7324	0.061
Mof_C 	C 	0.0078	0.3554	0.794	0.039
Mof_C 	C 	0.0081	0.3204	0.7558	0.16
Mof_H 	H 	0.0135	0.3297	0.722	-0.165
Mof_Cl	Cl	0.0181	0.418	0.7761	-0.29
Mof_H 	H 	0.0134	0.3897	0.7852	0.167
Mof_Cl	Cl	0.9401	0.4055	0.7783	0.059
Mof_H 	H 	0.9534	0.3805	0.7959	0.041
Mof_C 	C 	0.9751	0.3522	0.7993	0.143
Mof_C 	C 	0.9758	0.3145	0.763	0.053
Mof_H 	H 	0.9588	0.3201	0.7324	-0.01
Mof_C 	C 	0.0078	0.8554	0.294	-0.047
Mof_C 	C 	0.0081	0.8204	0.2558	0.164
Mof_H 	H 	0.0135	0.8297	0.222	-0.16
Mof_Cl	Cl	0.0181	0.918	0.2761	-0.159
Mof_H 	H 	0.0134	0.8897	0.2852	0.145
Mof_Cl	Cl	0.9401	0.9055	0.2783	-0.279
Mof_H 	H 	0.9534	0.8805	0.2959	0.156
Mof_C 	C 	0.9751	0.8522	0.2993	0.255
Mof_C 	C 	0.9758	0.8145	0.263	0.039
Mof_H 	H 	0.9588	0.8201	0.2324	0
Mof_C 	C 	0.5078	0.6446	0.706	-0.091
Mof_C 	C 	0.5081	0.6796	0.7442	0.023
Mof_H 	H 	0.5135	0.6703	0.778	0.022
Mof_Cl	Cl	0.5181	0.582	0.7239	-0.186
Mof_H 	H 	0.5134	0.6103	0.7148	0.199
Mof_Cl	Cl	0.4401	0.5945	0.7217	-0.245
Mof_H 	H 	0.4534	0.6195	0.7041	0.234
Mof_C 	C 	0.4751	0.6478	0.7007	-0.037
Mof_C 	C 	0.4758	0.6855	0.737	-0.023
Mof_H 	H 	0.4588	0.6799	0.7676	0.064
Mof_C 	C 	0.5078	0.1446	0.206	-0.07
Mof_C 	C 	0.5081	0.1796	0.2442	0.03
Mof_H 	H 	0.5135	0.1703	0.278	0.018
Mof_Cl	Cl	0.5181	0.082	0.2239	-0.234
Mof_H 	H 	0.5134	0.1103	0.2148	0.214
Mof_Cl	Cl	0.4401	0.0945	0.2217	-0.147
Mof_H 	H 	0.4534	0.1195	0.2041	0.201
Mof_C 	C 	0.4751	0.1478	0.2007	-0.064
Mof_C 	C 	0.4758	0.1855	0.237	-0.028
Mof_H 	H 	0.4588	0.1799	0.2676	0.063
Mof_C 	C 	0.0078	0.6446	0.206	0.044
Mof_C 	C 	0.0081	0.6796	0.2442	0.166
Mof_H 	H 	0.0135	0.6703	0.278	-0.167
Mof_Cl	Cl	0.0181	0.582	0.2239	-0.295
Mof_H 	H 	0.0134	0.6103	0.2148	0.17
Mof_Cl	Cl	0.9401	0.5945	0.2217	0.073
Mof_H 	H 	0.9534	0.6195	0.2041	0.034
Mof_C 	C 	0.9751	0.6478	0.2007	0.149
Mof_C 	C 	0.9758	0.6855	0.237	0.041
Mof_H 	H 	0.9588	0.6799	0.2676	-0.006
Mof_C 	C 	0.0078	0.1446	0.706	0.059
Mof_C 	C 	0.0081	0.1796	0.7442	0.175
Mof_H 	H 	0.0135	0.1703	0.778	-0.167
Mof_Cl	Cl	0.0181	0.082	0.7239	-0.356
Mof_H 	H 	0.0134	0.1103	0.7148	0.201
Mof_Cl	Cl	0.9401	0.0945	0.7217	0.208
Mof_H 	H 	0.9534	0.1195	0.7041	-0.023
Mof_C 	C 	0.9751	0.1478	0.7007	0.147
Mof_C 	C 	0.9758	0.1855	0.737	0.019
Mof_H 	H 	0.9588	0.1799	0.7676	0.002
Mof_C 	C 	0.706	0.6446	0.5078	-0.091
Mof_C 	C 	0.7442	0.6796	0.5081	0.023
Mof_H 	H 	0.778	0.6703	0.5135	0.022
Mof_Cl	Cl	0.7239	0.582	0.5181	-0.186
Mof_H 	H 	0.7148	0.6103	0.5134	0.199
Mof_Cl	Cl	0.7217	0.5945	0.4401	-0.245
Mof_H 	H 	0.7041	0.6195	0.4534	0.234
Mof_C 	C 	0.7007	0.6478	0.4751	-0.037
Mof_C 	C 	0.737	0.6855	0.4758	-0.023
Mof_H 	H 	0.7676	0.6799	0.4588	0.064
Mof_C 	C 	0.706	0.1446	0.0078	0.059
Mof_C 	C 	0.7442	0.1796	0.0081	0.175
Mof_H 	H 	0.778	0.1703	0.0135	-0.167
Mof_Cl	Cl	0.7239	0.082	0.0181	-0.356
Mof_H 	H 	0.7148	0.1103	0.0134	0.201
Mof_Cl	Cl	0.7217	0.0945	0.9401	0.208
Mof_H 	H 	0.7041	0.1195	0.9534	-0.023
Mof_C 	C 	0.7007	0.1478	0.9751	0.147
Mof_C 	C 	0.737	0.1855	0.9758	0.019
Mof_H 	H 	0.7676	0.1799	0.9588	0.002
Mof_C 	C 	0.206	0.6446	0.0078	0.044
Mof_C 	C 	0.2442	0.6796	0.0081	0.166
Mof_H 	H 	0.278	0.6703	0.0135	-0.167
Mof_Cl	Cl	0.2239	0.582	0.0181	-0.295
Mof_H 	H 	0.2148	0.6103	0.0134	0.17
Mof_Cl	Cl	0.2217	0.5945	0.9401	0.073
Mof_H 	H 	0.2041	0.6195	0.9534	0.034
Mof_C 	C 	0.2007	0.6478	0.9751	0.149
Mof_C 	C 	0.237	0.6855	0.9758	0.041
Mof_H 	H 	0.2676	0.6799	0.9588	-0.006
Mof_C 	C 	0.206	0.1446	0.5078	-0.07
Mof_C 	C 	0.2442	0.1796	0.5081	0.03
Mof_H 	H 	0.278	0.1703	0.5135	0.018
Mof_Cl	Cl	0.2239	0.082	0.5181	-0.234
Mof_H 	H 	0.2148	0.1103	0.5134	0.214
Mof_Cl	Cl	0.2217	0.0945	0.4401	-0.147
Mof_H 	H 	0.2041	0.1195	0.4534	0.201
Mof_C 	C 	0.2007	0.1478	0.4751	-0.064
Mof_C 	C 	0.237	0.1855	0.4758	-0.028
Mof_H 	H 	0.2676	0.1799	0.4588	0.063
Mof_C 	C 	0.294	0.3554	0.5078	-0.093
Mof_C 	C 	0.2558	0.3204	0.5081	0.026
Mof_H 	H 	0.222	0.3297	0.5135	0.019
Mof_Cl	Cl	0.2761	0.418	0.5181	-0.189
Mof_H 	H 	0.2852	0.3897	0.5134	0.201
Mof_Cl	Cl	0.2783	0.4055	0.4401	-0.249
Mof_H 	H 	0.2959	0.3805	0.4534	0.236
Mof_C 	C 	0.2993	0.3522	0.4751	-0.038
Mof_C 	C 	0.263	0.3145	0.4758	-0.022
Mof_H 	H 	0.2324	0.3201	0.4588	0.061
Mof_C 	C 	0.294	0.8554	0.0078	-0.047
Mof_C 	C 	0.2558	0.8204	0.0081	0.164
Mof_H 	H 	0.222	0.8297	0.0135	-0.16
Mof_Cl	Cl	0.2761	0.918	0.0181	-0.159
Mof_H 	H 	0.2852	0.8897	0.0134	0.145
Mof_Cl	Cl	0.2783	0.9055	0.9401	-0.279
Mof_H 	H 	0.2959	0.8805	0.9534	0.156
Mof_C 	C 	0.2993	0.8522	0.9751	0.255
Mof_C 	C 	0.263	0.8145	0.9758	0.039
Mof_H 	H 	0.2324	0.8201	0.9588	0
Mof_C 	C 	0.794	0.3554	0.0078	0.039
Mof_C 	C 	0.7558	0.3204	0.0081	0.16
Mof_H 	H 	0.722	0.3297	0.0135	-0.165
Mof_Cl	Cl	0.7761	0.418	0.0181	-0.29
Mof_H 	H 	0.7852	0.3897	0.0134	0.167
Mof_Cl	Cl	0.7783	0.4055	0.9401	0.059
Mof_H 	H 	0.7959	0.3805	0.9534	0.041
Mof_C 	C 	0.7993	0.3522	0.9751	0.143
Mof_C 	C 	0.763	0.3145	0.9758	0.053
Mof_H 	H 	0.7324	0.3201	0.9588	-0.01
Mof_C 	C 	0.794	0.8554	0.5078	-0.165
Mof_C 	C 	0.7558	0.8204	0.5081	0.014
Mof_H 	H 	0.722	0.8297	0.5135	0.027
Mof_Cl	Cl	0.7761	0.918	0.5181	-0.051
Mof_H 	H 	0.7852	0.8897	0.5134	0.159
Mof_Cl	Cl	0.7783	0.9055	0.4401	-0.579
Mof_H 	H 	0.7959	0.8805	0.4534	0.356
Mof_C 	C 	0.7993	0.8522	0.4751	0.04
Mof_C 	C 	0.763	0.8145	0.4758	-0.004
Mof_H 	H 	0.7324	0.8201	0.4588	0.061
Mof_C 	C 	0.294	0.6446	0.4922	-0.093
Mof_C 	C 	0.2558	0.6796	0.4919	0.025
Mof_H 	H 	0.222	0.6703	0.4865	0.02
Mof_Cl	Cl	0.2761	0.582	0.4819	-0.189
Mof_H 	H 	0.2852	0.6103	0.4866	0.201
Mof_Cl	Cl	0.2783	0.5945	0.5599	-0.249
Mof_H 	H 	0.2959	0.6195	0.5466	0.236
Mof_C 	C 	0.2993	0.6478	0.5249	-0.037
Mof_C 	C 	0.263	0.6855	0.5242	-0.022
Mof_H 	H 	0.2324	0.6799	0.5412	0.062
Mof_C 	C 	0.294	0.1446	0.9922	-0.065
Mof_C 	C 	0.2558	0.1796	0.9919	-0.045
Mof_H 	H 	0.222	0.1703	0.9865	0.186
Mof_Cl	Cl	0.2761	0.082	0.9819	-0.183
Mof_H 	H 	0.2852	0.1103	0.9866	0.226
Mof_Cl	Cl	0.2783	0.0945	0.0599	-0.229
Mof_H 	H 	0.2959	0.1195	0.0466	0.34
Mof_C 	C 	0.2993	0.1478	0.0249	-0.347
Mof_C 	C 	0.263	0.1855	0.0242	-0.137
Mof_H 	H 	0.2324	0.1799	0.0412	0.146
Mof_C 	C 	0.794	0.6446	0.9922	-0.103
Mof_C 	C 	0.7558	0.6796	0.9919	-0.041
Mof_H 	H 	0.722	0.6703	0.9865	0.185
Mof_Cl	Cl	0.7761	0.582	0.9819	-0.148
Mof_H 	H 	0.7852	0.6103	0.9866	0.229
Mof_Cl	Cl	0.7783	0.5945	0.0599	-0.315
Mof_H 	H 	0.7959	0.6195	0.0466	0.355
Mof_C 	C 	0.7993	0.6478	0.0249	-0.274
Mof_C 	C 	0.763	0.6855	0.0242	-0.147
Mof_H 	H 	0.7324	0.6799	0.0412	0.151
Mof_C 	C 	0.794	0.1446	0.4922	-0.073
Mof_C 	C 	0.7558	0.1796	0.4919	0.023
Mof_H 	H 	0.722	0.1703	0.4865	0.019
Mof_Cl	Cl	0.7761	0.082	0.4819	-0.228
Mof_H 	H 	0.7852	0.1103	0.4866	0.21
Mof_Cl	Cl	0.7783	0.0945	0.5599	-0.162
Mof_H 	H 	0.7959	0.1195	0.5466	0.207
Mof_C 	C 	0.7993	0.1478	0.5249	-0.065
Mof_C 	C 	0.763	0.1855	0.5242	-0.016
Mof_H 	H 	0.7324	0.1799	0.5412	0.058
Mof_C 	C 	0.706	0.3554	0.4922	-0.091
Mof_C 	C 	0.7442	0.3204	0.4919	0.024
Mof_H 	H 	0.778	0.3297	0.4865	0.022
Mof_Cl	Cl	0.7239	0.418	0.4819	-0.185
Mof_H 	H 	0.7148	0.3897	0.4866	0.198
Mof_Cl	Cl	0.7217	0.4055	0.5599	-0.247
Mof_H 	H 	0.7041	0.3805	0.5466	0.236
Mof_C 	C 	0.7007	0.3522	0.5249	-0.038
Mof_C 	C 	0.737	0.3145	0.5242	-0.022
Mof_H 	H 	0.7676	0.3201	0.5412	0.064
Mof_C 	C 	0.706	0.8554	0.9922	-0.159
Mof_C 	C 	0.7442	0.8204	0.9919	-0.06
Mof_H 	H 	0.778	0.8297	0.9865	0.187
Mof_Cl	Cl	0.7239	0.918	0.9819	0.025
Mof_H 	H 	0.7148	0.8897	0.9866	0.151
Mof_Cl	Cl	0.7217	0.9055	0.0599	-0.71
Mof_H 	H 	0.7041	0.8805	0.0466	0.515
Mof_C 	C 	0.7007	0.8522	0.0249	-0.243
Mof_C 	C 	0.737	0.8145	0.0242	-0.1
Mof_H 	H 	0.7676	0.8201	0.0412	0.139
Mof_C 	C 	0.206	0.3554	0.9922	-0.093
Mof_C 	C 	0.2442	0.3204	0.9919	-0.043
Mof_H 	H 	0.278	0.3297	0.9865	0.189
Mof_Cl	Cl	0.2239	0.418	0.9819	-0.137
Mof_H 	H 	0.2148	0.3897	0.9866	0.217
Mof_Cl	Cl	0.2217	0.4055	0.0599	-0.33
Mof_H 	H 	0.2041	0.3805	0.0466	0.372
Mof_C 	C 	0.2007	0.3522	0.0249	-0.306
Mof_C 	C 	0.237	0.3145	0.0242	-0.145
Mof_H 	H 	0.2676	0.3201	0.0412	0.152
Mof_C 	C 	0.206	0.8554	0.4922	-0.168
Mof_C 	C 	0.2442	0.8204	0.4919	0.02
Mof_H 	H 	0.278	0.8297	0.4865	0.026
Mof_Cl	Cl	0.2239	0.918	0.4819	-0.043
Mof_H 	H 	0.2148	0.8897	0.4866	0.159
Mof_Cl	Cl	0.2217	0.9055	0.5599	-0.596
Mof_H 	H 	0.2041	0.8805	0.5466	0.363
Mof_C 	C 	0.2007	0.8522	0.5249	0.046
Mof_C 	C 	0.237	0.8145	0.5242	-0.013
Mof_H 	H 	0.2676	0.8201	0.5412	0.064
Mof_C 	C 	0.5078	0.706	0.6446	-0.091
Mof_C 	C 	0.5081	0.7442	0.6796	0.023
Mof_H 	H 	0.5135	0.778	0.6703	0.022
Mof_Cl	Cl	0.5181	0.7239	0.582	-0.186
Mof_H 	H 	0.5134	0.7148	0.6103	0.199
Mof_Cl	Cl	0.4401	0.7217	0.5945	-0.245
Mof_H 	H 	0.4534	0.7041	0.6195	0.234
Mof_C 	C 	0.4751	0.7007	0.6478	-0.037
Mof_C 	C 	0.4758	0.737	0.6855	-0.023
Mof_H 	H 	0.4588	0.7676	0.6799	0.064
Mof_C 	C 	0.5078	0.206	0.1446	-0.07
Mof_C 	C 	0.5081	0.2442	0.1796	0.03
Mof_H 	H 	0.5135	0.278	0.1703	0.018
Mof_Cl	Cl	0.5181	0.2239	0.082	-0.234
Mof_H 	H 	0.5134	0.2148	0.1103	0.214
Mof_Cl	Cl	0.4401	0.2217	0.0945	-0.147
Mof_H 	H 	0.4534	0.2041	0.1195	0.201
Mof_C 	C 	0.4751	0.2007	0.1478	-0.064
Mof_C 	C 	0.4758	0.237	0.1855	-0.028
Mof_H 	H 	0.4588	0.2676	0.1799	0.063
Mof_C 	C 	0.0078	0.706	0.1446	0.059
Mof_C 	C 	0.0081	0.7442	0.1796	0.175
Mof_H 	H 	0.0135	0.778	0.1703	-0.167
Mof_Cl	Cl	0.0181	0.7239	0.082	-0.356
Mof_H 	H 	0.0134	0.7148	0.1103	0.201
Mof_Cl	Cl	0.9401	0.7217	0.0945	0.208
Mof_H 	H 	0.9534	0.7041	0.1195	-0.023
Mof_C 	C 	0.9751	0.7007	0.1478	0.147
Mof_C 	C 	0.9758	0.737	0.1855	0.019
Mof_H 	H 	0.9588	0.7676	0.1799	0.002
Mof_C 	C 	0.0078	0.206	0.6446	0.044
Mof_C 	C 	0.0081	0.2442	0.6796	0.166
Mof_H 	H 	0.0135	0.278	0.6703	-0.167
Mof_Cl	Cl	0.0181	0.2239	0.582	-0.295
Mof_H 	H 	0.0134	0.2148	0.6103	0.17
Mof_Cl	Cl	0.9401	0.2217	0.5945	0.073
Mof_H 	H 	0.9534	0.2041	0.6195	0.034
Mof_C 	C 	0.9751	0.2007	0.6478	0.149
Mof_C 	C 	0.9758	0.237	0.6855	0.041
Mof_H 	H 	0.9588	0.2676	0.6799	-0.006
Mof_C 	C 	0.5078	0.294	0.3554	-0.093
Mof_C 	C 	0.5081	0.2558	0.3204	0.026
Mof_H 	H 	0.5135	0.222	0.3297	0.019
Mof_Cl	Cl	0.5181	0.2761	0.418	-0.189
Mof_H 	H 	0.5134	0.2852	0.3897	0.201
Mof_Cl	Cl	0.4401	0.2783	0.4055	-0.249
Mof_H 	H 	0.4534	0.2959	0.3805	0.236
Mof_C 	C 	0.4751	0.2993	0.3522	-0.038
Mof_C 	C 	0.4758	0.263	0.3145	-0.022
Mof_H 	H 	0.4588	0.2324	0.3201	0.061
Mof_C 	C 	0.5078	0.794	0.8554	-0.165
Mof_C 	C 	0.5081	0.7558	0.8204	0.014
Mof_H 	H 	0.5135	0.722	0.8297	0.027
Mof_Cl	Cl	0.5181	0.7761	0.918	-0.051
Mof_H 	H 	0.5134	0.7852	0.8897	0.159
Mof_Cl	Cl	0.4401	0.7783	0.9055	-0.579
Mof_H 	H 	0.4534	0.7959	0.8805	0.356
Mof_C 	C 	0.4751	0.7993	0.8522	0.04
Mof_C 	C 	0.4758	0.763	0.8145	-0.004
Mof_H 	H 	0.4588	0.7324	0.8201	0.061
Mof_C 	C 	0.0078	0.294	0.8554	-0.047
Mof_C 	C 	0.0081	0.2558	0.8204	0.164
Mof_H 	H 	0.0135	0.222	0.8297	-0.16
Mof_Cl	Cl	0.0181	0.2761	0.918	-0.159
Mof_H 	H 	0.0134	0.2852	0.8897	0.145
Mof_Cl	Cl	0.9401	0.2783	0.9055	-0.279
Mof_H 	H 	0.9534	0.2959	0.8805	0.156
Mof_C 	C 	0.9751	0.2993	0.8522	0.255
Mof_C 	C 	0.9758	0.263	0.8145	0.039
Mof_H 	H 	0.9588	0.2324	0.8201	0
Mof_C 	C 	0.0078	0.794	0.3554	0.039
Mof_C 	C 	0.0081	0.7558	0.3204	0.16
Mof_H 	H 	0.0135	0.722	0.3297	-0.165
Mof_Cl	Cl	0.0181	0.7761	0.418	-0.29
Mof_H 	H 	0.0134	0.7852	0.3897	0.167
Mof_Cl	Cl	0.9401	0.7783	0.4055	0.059
Mof_H 	H 	0.9534	0.7959	0.3805	0.041
Mof_C 	C 	0.9751	0.7993	0.3522	0.143
Mof_C 	C 	0.9758	0.763	0.3145	0.053
Mof_H 	H 	0.9588	0.7324	0.3201	-0.01
Mof_C 	C 	0.4922	0.294	0.6446	-0.093
Mof_C 	C 	0.4919	0.2558	0.6796	0.025
Mof_H 	H 	0.4865	0.222	0.6703	0.02
Mof_Cl	Cl	0.4819	0.2761	0.582	-0.189
Mof_H 	H 	0.4866	0.2852	0.6103	0.201
Mof_Cl	Cl	0.5599	0.2783	0.5945	-0.249
Mof_H 	H 	0.5466	0.2959	0.6195	0.236
Mof_C 	C 	0.5249	0.2993	0.6478	-0.037
Mof_C 	C 	0.5242	0.263	0.6855	-0.022
Mof_H 	H 	0.5412	0.2324	0.6799	0.062
Mof_C 	C 	0.4922	0.794	0.1446	-0.073
Mof_C 	C 	0.4919	0.7558	0.1796	0.023
Mof_H 	H 	0.4865	0.722	0.1703	0.019
Mof_Cl	Cl	0.4819	0.7761	0.082	-0.228
Mof_H 	H 	0.4866	0.7852	0.1103	0.21
Mof_Cl	Cl	0.5599	0.7783	0.0945	-0.162
Mof_H 	H 	0.5466	0.7959	0.1195	0.207
Mof_C 	C 	0.5249	0.7993	0.1478	-0.065
Mof_C 	C 	0.5242	0.763	0.1855	-0.016
Mof_H 	H 	0.5412	0.7324	0.1799	0.058
Mof_C 	C 	0.9922	0.294	0.1446	-0.065
Mof_C 	C 	0.9919	0.2558	0.1796	-0.045
Mof_H 	H 	0.9865	0.222	0.1703	0.186
Mof_Cl	Cl	0.9819	0.2761	0.082	-0.183
Mof_H 	H 	0.9866	0.2852	0.1103	0.226
Mof_Cl	Cl	0.0599	0.2783	0.0945	-0.229
Mof_H 	H 	0.0466	0.2959	0.1195	0.34
Mof_C 	C 	0.0249	0.2993	0.1478	-0.347
Mof_C 	C 	0.0242	0.263	0.1855	-0.137
Mof_H 	H 	0.0412	0.2324	0.1799	0.146
Mof_C 	C 	0.9922	0.794	0.6446	-0.103
Mof_C 	C 	0.9919	0.7558	0.6796	-0.041
Mof_H 	H 	0.9865	0.722	0.6703	0.185
Mof_Cl	Cl	0.9819	0.7761	0.582	-0.148
Mof_H 	H 	0.9866	0.7852	0.6103	0.229
Mof_Cl	Cl	0.0599	0.7783	0.5945	-0.315
Mof_H 	H 	0.0466	0.7959	0.6195	0.355
Mof_C 	C 	0.0249	0.7993	0.6478	-0.274
Mof_C 	C 	0.0242	0.763	0.6855	-0.147
Mof_H 	H 	0.0412	0.7324	0.6799	0.151
Mof_C 	C 	0.4922	0.706	0.3554	-0.091
Mof_C 	C 	0.4919	0.7442	0.3204	0.024
Mof_H 	H 	0.4865	0.778	0.3297	0.022
Mof_Cl	Cl	0.4819	0.7239	0.418	-0.185
Mof_H 	H 	0.4866	0.7148	0.3897	0.198
Mof_Cl	Cl	0.5599	0.7217	0.4055	-0.247
Mof_H 	H 	0.5466	0.7041	0.3805	0.236
Mof_C 	C 	0.5249	0.7007	0.3522	-0.038
Mof_C 	C 	0.5242	0.737	0.3145	-0.022
Mof_H 	H 	0.5412	0.7676	0.3201	0.064
Mof_C 	C 	0.4922	0.206	0.8554	-0.168
Mof_C 	C 	0.4919	0.2442	0.8204	0.02
Mof_H 	H 	0.4865	0.278	0.8297	0.026
Mof_Cl	Cl	0.4819	0.2239	0.918	-0.043
Mof_H 	H 	0.4866	0.2148	0.8897	0.159
Mof_Cl	Cl	0.5599	0.2217	0.9055	-0.596
Mof_H 	H 	0.5466	0.2041	0.8805	0.363
Mof_C 	C 	0.5249	0.2007	0.8522	0.046
Mof_C 	C 	0.5242	0.237	0.8145	-0.013
Mof_H 	H 	0.5412	0.2676	0.8201	0.064
Mof_C 	C 	0.9922	0.706	0.8554	-0.159
Mof_C 	C 	0.9919	0.7442	0.8204	-0.06
Mof_H 	H 	0.9865	0.778	0.8297	0.187
Mof_Cl	Cl	0.9819	0.7239	0.918	0.025
Mof_H 	H 	0.9866	0.7148	0.8897	0.151
Mof_Cl	Cl	0.0599	0.7217	0.9055	-0.71
Mof_H 	H 	0.0466	0.7041	0.8805	0.515
Mof_C 	C 	0.0249	0.7007	0.8522	-0.243
Mof_C 	C 	0.0242	0.737	0.8145	-0.1
Mof_H 	H 	0.0412	0.7676	0.8201	0.139
Mof_C 	C 	0.9922	0.206	0.3554	-0.093
Mof_C 	C 	0.9919	0.2442	0.3204	-0.043
Mof_H 	H 	0.9865	0.278	0.3297	0.189
Mof_Cl	Cl	0.9819	0.2239	0.418	-0.137
Mof_H 	H 	0.9866	0.2148	0.3897	0.217
Mof_Cl	Cl	0.0599	0.2217	0.4055	-0.33
Mof_H 	H 	0.0466	0.2041	0.3805	0.372
Mof_C 	C 	0.0249	0.2007	0.3522	-0.306
Mof_C 	C 	0.0242	0.237	0.3145	-0.145
Mof_H 	H 	0.0412	0.2676	0.3201	0.152
Mof_C 	C 	0.6446	0.5078	0.706	-0.091
Mof_C 	C 	0.6796	0.5081	0.7442	0.023
Mof_H 	H 	0.6703	0.5135	0.778	0.022
Mof_Cl	Cl	0.582	0.5181	0.7239	-0.186
Mof_H 	H 	0.6103	0.5134	0.7148	0.199
Mof_Cl	Cl	0.5945	0.4401	0.7217	-0.245
Mof_H 	H 	0.6195	0.4534	0.7041	0.234
Mof_C 	C 	0.6478	0.4751	0.7007	-0.037
Mof_C 	C 	0.6855	0.4758	0.737	-0.023
Mof_H 	H 	0.6799	0.4588	0.7676	0.064
Mof_C 	C 	0.6446	0.0078	0.206	0.044
Mof_C 	C 	0.6796	0.0081	0.2442	0.166
Mof_H 	H 	0.6703	0.0135	0.278	-0.167
Mof_Cl	Cl	0.582	0.0181	0.2239	-0.295
Mof_H 	H 	0.6103	0.0134	0.2148	0.17
Mof_Cl	Cl	0.5945	0.9401	0.2217	0.073
Mof_H 	H 	0.6195	0.9534	0.2041	0.034
Mof_C 	C 	0.6478	0.9751	0.2007	0.149
Mof_C 	C 	0.6855	0.9758	0.237	0.041
Mof_H 	H 	0.6799	0.9588	0.2676	-0.006
Mof_C 	C 	0.1446	0.5078	0.206	-0.07
Mof_C 	C 	0.1796	0.5081	0.2442	0.03
Mof_H 	H 	0.1703	0.5135	0.278	0.018
Mof_Cl	Cl	0.082	0.5181	0.2239	-0.234
Mof_H 	H 	0.1103	0.5134	0.2148	0.214
Mof_Cl	Cl	0.0945	0.4401	0.2217	-0.147
Mof_H 	H 	0.1195	0.4534	0.2041	0.201
Mof_C 	C 	0.1478	0.4751	0.2007	-0.064
Mof_C 	C 	0.1855	0.4758	0.237	-0.028
Mof_H 	H 	0.1799	0.4588	0.2676	0.063
Mof_C 	C 	0.1446	0.0078	0.706	0.059
Mof_C 	C 	0.1796	0.0081	0.7442	0.175
Mof_H 	H 	0.1703	0.0135	0.778	-0.167
Mof_Cl	Cl	0.082	0.0181	0.7239	-0.356
Mof_H 	H 	0.1103	0.0134	0.7148	0.201
Mof_Cl	Cl	0.0945	0.9401	0.7217	0.208
Mof_H 	H 	0.1195	0.9534	0.7041	-0.023
Mof_C 	C 	0.1478	0.9751	0.7007	0.147
Mof_C 	C 	0.1855	0.9758	0.737	0.019
Mof_H 	H 	0.1799	0.9588	0.7676	0.002
Mof_C 	C 	0.3554	0.5078	0.294	-0.093
Mof_C 	C 	0.3204	0.5081	0.2558	0.026
Mof_H 	H 	0.3297	0.5135	0.222	0.019
Mof_Cl	Cl	0.418	0.5181	0.2761	-0.189
Mof_H 	H 	0.3897	0.5134	0.2852	0.201
Mof_Cl	Cl	0.4055	0.4401	0.2783	-0.249
Mof_H 	H 	0.3805	0.4534	0.2959	0.236
Mof_C 	C 	0.3522	0.4751	0.2993	-0.038
Mof_C 	C 	0.3145	0.4758	0.263	-0.022
Mof_H 	H 	0.3201	0.4588	0.2324	0.061
Mof_C 	C 	0.3554	0.0078	0.794	0.039
Mof_C 	C 	0.3204	0.0081	0.7558	0.16
Mof_H 	H 	0.3297	0.0135	0.722	-0.165
Mof_Cl	Cl	0.418	0.0181	0.7761	-0.29
Mof_H 	H 	0.3897	0.0134	0.7852	0.167
Mof_Cl	Cl	0.4055	0.9401	0.7783	0.059
Mof_H 	H 	0.3805	0.9534	0.7959	0.041
Mof_C 	C 	0.3522	0.9751	0.7993	0.143
Mof_C 	C 	0.3145	0.9758	0.763	0.053
Mof_H 	H 	0.3201	0.9588	0.7324	-0.01
Mof_C 	C 	0.8554	0.5078	0.794	-0.165
Mof_C 	C 	0.8204	0.5081	0.7558	0.014
Mof_H 	H 	0.8297	0.5135	0.722	0.027
Mof_Cl	Cl	0.918	0.5181	0.7761	-0.051
Mof_H 	H 	0.8897	0.5134	0.7852	0.159
Mof_Cl	Cl	0.9055	0.4401	0.7783	-0.579
Mof_H 	H 	0.8805	0.4534	0.7959	0.356
Mof_C 	C 	0.8522	0.4751	0.7993	0.04
Mof_C 	C 	0.8145	0.4758	0.763	-0.004
Mof_H 	H 	0.8201	0.4588	0.7324	0.061
Mof_C 	C 	0.8554	0.0078	0.294	-0.047
Mof_C 	C 	0.8204	0.0081	0.2558	0.164
Mof_H 	H 	0.8297	0.0135	0.222	-0.16
Mof_Cl	Cl	0.918	0.0181	0.2761	-0.159
Mof_H 	H 	0.8897	0.0134	0.2852	0.145
Mof_Cl	Cl	0.9055	0.9401	0.2783	-0.279
Mof_H 	H 	0.8805	0.9534	0.2959	0.156
Mof_C 	C 	0.8522	0.9751	0.2993	0.255
Mof_C 	C 	0.8145	0.9758	0.263	0.039
Mof_H 	H 	0.8201	0.9588	0.2324	0
Mof_C 	C 	0.6446	0.4922	0.294	-0.093
Mof_C 	C 	0.6796	0.4919	0.2558	0.025
Mof_H 	H 	0.6703	0.4865	0.222	0.02
Mof_Cl	Cl	0.582	0.4819	0.2761	-0.189
Mof_H 	H 	0.6103	0.4866	0.2852	0.201
Mof_Cl	Cl	0.5945	0.5599	0.2783	-0.249
Mof_H 	H 	0.6195	0.5466	0.2959	0.236
Mof_C 	C 	0.6478	0.5249	0.2993	-0.037
Mof_C 	C 	0.6855	0.5242	0.263	-0.022
Mof_H 	H 	0.6799	0.5412	0.2324	0.062
Mof_C 	C 	0.6446	0.9922	0.794	-0.103
Mof_C 	C 	0.6796	0.9919	0.7558	-0.041
Mof_H 	H 	0.6703	0.9865	0.722	0.185
Mof_Cl	Cl	0.582	0.9819	0.7761	-0.148
Mof_H 	H 	0.6103	0.9866	0.7852	0.229
Mof_Cl	Cl	0.5945	0.0599	0.7783	-0.315
Mof_H 	H 	0.6195	0.0466	0.7959	0.355
Mof_C 	C 	0.6478	0.0249	0.7993	-0.274
Mof_C 	C 	0.6855	0.0242	0.763	-0.147
Mof_H 	H 	0.6799	0.0412	0.7324	0.151
Mof_C 	C 	0.1446	0.4922	0.794	-0.073
Mof_C 	C 	0.1796	0.4919	0.7558	0.023
Mof_H 	H 	0.1703	0.4865	0.722	0.019
Mof_Cl	Cl	0.082	0.4819	0.7761	-0.228
Mof_H 	H 	0.1103	0.4866	0.7852	0.21
Mof_Cl	Cl	0.0945	0.5599	0.7783	-0.162
Mof_H 	H 	0.1195	0.5466	0.7959	0.207
Mof_C 	C 	0.1478	0.5249	0.7993	-0.065
Mof_C 	C 	0.1855	0.5242	0.763	-0.016
Mof_H 	H 	0.1799	0.5412	0.7324	0.058
Mof_C 	C 	0.1446	0.9922	0.294	-0.065
Mof_C 	C 	0.1796	0.9919	0.2558	-0.045
Mof_H 	H 	0.1703	0.9865	0.222	0.186
Mof_Cl	Cl	0.082	0.9819	0.2761	-0.183
Mof_H 	H 	0.1103	0.9866	0.2852	0.226
Mof_Cl	Cl	0.0945	0.0599	0.2783	-0.229
Mof_H 	H 	0.1195	0.0466	0.2959	0.34
Mof_C 	C 	0.1478	0.0249	0.2993	-0.347
Mof_C 	C 	0.1855	0.0242	0.263	-0.137
Mof_H 	H 	0.1799	0.0412	0.2324	0.146
Mof_C 	C 	0.3554	0.4922	0.706	-0.091
Mof_C 	C 	0.3204	0.4919	0.7442	0.024
Mof_H 	H 	0.3297	0.4865	0.778	0.022
Mof_Cl	Cl	0.418	0.4819	0.7239	-0.185
Mof_H 	H 	0.3897	0.4866	0.7148	0.198
Mof_Cl	Cl	0.4055	0.5599	0.7217	-0.247
Mof_H 	H 	0.3805	0.5466	0.7041	0.236
Mof_C 	C 	0.3522	0.5249	0.7007	-0.038
Mof_C 	C 	0.3145	0.5242	0.737	-0.022
Mof_H 	H 	0.3201	0.5412	0.7676	0.064
Mof_C 	C 	0.3554	0.9922	0.206	-0.093
Mof_C 	C 	0.3204	0.9919	0.2442	-0.043
Mof_H 	H 	0.3297	0.9865	0.278	0.189
Mof_Cl	Cl	0.418	0.9819	0.2239	-0.137
Mof_H 	H 	0.3897	0.9866	0.2148	0.217
Mof_Cl	Cl	0.4055	0.0599	0.2217	-0.33
Mof_H 	H 	0.3805	0.0466	0.2041	0.372
Mof_C 	C 	0.3522	0.0249	0.2007	-0.306
Mof_C 	C 	0.3145	0.0242	0.237	-0.145
Mof_H 	H 	0.3201	0.0412	0.2676	0.152
Mof_C 	C 	0.8554	0.4922	0.206	-0.168
Mof_C 	C 	0.8204	0.4919	0.2442	0.02
Mof_H 	H 	0.8297	0.4865	0.278	0.026
Mof_Cl	Cl	0.918	0.4819	0.2239	-0.043
Mof_H 	H 	0.8897	0.4866	0.2148	0.159
Mof_Cl	Cl	0.9055	0.5599	0.2217	-0.596
Mof_H 	H 	0.8805	0.5466	0.2041	0.363
Mof_C 	C 	0.8522	0.5249	0.2007	0.046
Mof_C 	C 	0.8145	0.5242	0.237	-0.013
Mof_H 	H 	0.8201	0.5412	0.2676	0.064
Mof_C 	C 	0.8554	0.9922	0.706	-0.159
Mof_C 	C 	0.8204	0.9919	0.7442	-0.06
Mof_H 	H 	0.8297	0.9865	0.778	0.187
Mof_Cl	Cl	0.918	0.9819	0.7239	0.025
Mof_H 	H 	0.8897	0.9866	0.7148	0.151
Mof_Cl	Cl	0.9055	0.0599	0.7217	-0.71
Mof_H 	H 	0.8805	0.0466	0.7041	0.515
Mof_C 	C 	0.8522	0.0249	0.7007	-0.243
Mof_C 	C 	0.8145	0.0242	0.737	-0.1
Mof_H 	H 	0.8201	0.0412	0.7676	0.139
Mof_C 	C 	0.6446	0.706	0.4922	-0.091
Mof_C 	C 	0.6796	0.7442	0.4919	0.023
Mof_H 	H 	0.6703	0.778	0.4865	0.022
Mof_Cl	Cl	0.582	0.7239	0.4819	-0.186
Mof_H 	H 	0.6103	0.7148	0.4866	0.198
Mof_Cl	Cl	0.5945	0.7217	0.5599	-0.246
Mof_H 	H 	0.6195	0.7041	0.5466	0.235
Mof_C 	C 	0.6478	0.7007	0.5249	-0.037
Mof_C 	C 	0.6855	0.737	0.5242	-0.023
Mof_H 	H 	0.6799	0.7676	0.5412	0.064
Mof_C 	C 	0.6446	0.206	0.9922	-0.095
Mof_C 	C 	0.6796	0.2442	0.9919	-0.043
Mof_H 	H 	0.6703	0.278	0.9865	0.187
Mof_Cl	Cl	0.582	0.2239	0.9819	-0.138
Mof_H 	H 	0.6103	0.2148	0.9866	0.219
Mof_Cl	Cl	0.5945	0.2217	0.0599	-0.333
Mof_H 	H 	0.6195	0.2041	0.0466	0.37
Mof_C 	C 	0.6478	0.2007	0.0249	-0.298
Mof_C 	C 	0.6855	0.237	0.0242	-0.145
Mof_H 	H 	0.6799	0.2676	0.0412	0.151
Mof_C 	C 	0.1446	0.706	0.9922	-0.062
Mof_C 	C 	0.1796	0.7442	0.9919	-0.047
Mof_H 	H 	0.1703	0.778	0.9865	0.184
Mof_Cl	Cl	0.082	0.7239	0.9819	-0.179
Mof_H 	H 	0.1103	0.7148	0.9866	0.221
Mof_Cl	Cl	0.0945	0.7217	0.0599	-0.227
Mof_H 	H 	0.1195	0.7041	0.0466	0.338
Mof_C 	C 	0.1478	0.7007	0.0249	-0.346
Mof_C 	C 	0.1855	0.737	0.0242	-0.133
Mof_H 	H 	0.1799	0.7676	0.0412	0.145
Mof_C 	C 	0.1446	0.206	0.4922	-0.07
Mof_C 	C 	0.1796	0.2442	0.4919	0.03
Mof_H 	H 	0.1703	0.278	0.4865	0.017
Mof_Cl	Cl	0.082	0.2239	0.4819	-0.235
Mof_H 	H 	0.1103	0.2148	0.4866	0.215
Mof_Cl	Cl	0.0945	0.2217	0.5599	-0.146
Mof_H 	H 	0.1195	0.2041	0.5466	0.2
Mof_C 	C 	0.1478	0.2007	0.5249	-0.063
Mof_C 	C 	0.1855	0.237	0.5242	-0.029
Mof_H 	H 	0.1799	0.2676	0.5412	0.063
Mof_C 	C 	0.3554	0.294	0.4922	-0.093
Mof_C 	C 	0.3204	0.2558	0.4919	0.026
Mof_H 	H 	0.3297	0.222	0.4865	0.019
Mof_Cl	Cl	0.418	0.2761	0.4819	-0.19
Mof_H 	H 	0.3897	0.2852	0.4866	0.201
Mof_Cl	Cl	0.4055	0.2783	0.5599	-0.249
Mof_H 	H 	0.3805	0.2959	0.5466	0.236
Mof_C 	C 	0.3522	0.2993	0.5249	-0.038
Mof_C 	C 	0.3145	0.263	0.5242	-0.022
Mof_H 	H 	0.3201	0.2324	0.5412	0.061
Mof_C 	C 	0.3554	0.794	0.9922	-0.104
Mof_C 	C 	0.3204	0.7558	0.9919	-0.042
Mof_H 	H 	0.3297	0.722	0.9865	0.187
Mof_Cl	Cl	0.418	0.7761	0.9819	-0.142
Mof_H 	H 	0.3897	0.7852	0.9866	0.226
Mof_Cl	Cl	0.4055	0.7783	0.0599	-0.329
Mof_H 	H 	0.3805	0.7959	0.0466	0.362
Mof_C 	C 	0.3522	0.7993	0.0249	-0.279
Mof_C 	C 	0.3145	0.763	0.0242	-0.146
Mof_H 	H 	0.3201	0.7324	0.0412	0.152
Mof_C 	C 	0.8554	0.294	0.9922	-0.163
Mof_C 	C 	0.8204	0.2558	0.9919	-0.059
Mof_H 	H 	0.8297	0.222	0.9865	0.189
Mof_Cl	Cl	0.918	0.2761	0.9819	0.023
Mof_H 	H 	0.8897	0.2852	0.9866	0.155
Mof_Cl	Cl	0.9055	0.2783	0.0599	-0.715
Mof_H 	H 	0.8805	0.2959	0.0466	0.518
Mof_C 	C 	0.8522	0.2993	0.0249	-0.244
Mof_C 	C 	0.8145	0.263	0.0242	-0.104
Mof_H 	H 	0.8201	0.2324	0.0412	0.139
Mof_C 	C 	0.8554	0.794	0.4922	-0.165
Mof_C 	C 	0.8204	0.7558	0.4919	0.014
Mof_H 	H 	0.8297	0.722	0.4865	0.027
Mof_Cl	Cl	0.918	0.7761	0.4819	-0.048
Mof_H 	H 	0.8897	0.7852	0.4866	0.156
Mof_Cl	Cl	0.9055	0.7783	0.5599	-0.581
Mof_H 	H 	0.8805	0.7959	0.5466	0.358
Mof_C 	C 	0.8522	0.7993	0.5249	0.038
Mof_C 	C 	0.8145	0.763	0.5242	-0.003
Mof_H 	H 	0.8201	0.7324	0.5412	0.06
Mof_C 	C 	0.6446	0.294	0.5078	-0.092
Mof_C 	C 	0.6796	0.2558	0.5081	0.024
Mof_H 	H 	0.6703	0.222	0.5135	0.02
Mof_Cl	Cl	0.582	0.2761	0.5181	-0.189
Mof_H 	H 	0.6103	0.2852	0.5134	0.2
Mof_Cl	Cl	0.5945	0.2783	0.4401	-0.25
Mof_H 	H 	0.6195	0.2959	0.4534	0.236
Mof_C 	C 	0.6478	0.2993	0.4751	-0.038
Mof_C 	C 	0.6855	0.263	0.4758	-0.021
Mof_H 	H 	0.6799	0.2324	0.4588	0.061
Mof_C 	C 	0.6446	0.794	0.0078	0.041
Mof_C 	C 	0.6796	0.7558	0.0081	0.155
Mof_H 	H 	0.6703	0.722	0.0135	-0.162
Mof_Cl	Cl	0.582	0.7761	0.0181	-0.29
Mof_H 	H 	0.6103	0.7852	0.0134	0.165
Mof_Cl	Cl	0.5945	0.7783	0.9401	0.063
Mof_H 	H 	0.6195	0.7959	0.9534	0.041
Mof_C 	C 	0.6478	0.7993	0.9751	0.136
Mof_C 	C 	0.6855	0.763	0.9758	0.053
Mof_H 	H 	0.6799	0.7324	0.9588	-0.009
Mof_C 	C 	0.1446	0.294	0.0078	0.061
Mof_C 	C 	0.1796	0.2558	0.0081	0.178
Mof_H 	H 	0.1703	0.222	0.0135	-0.174
Mof_Cl	Cl	0.082	0.2761	0.0181	-0.359
Mof_H 	H 	0.1103	0.2852	0.0134	0.2
Mof_Cl	Cl	0.0945	0.2783	0.9401	0.208
Mof_H 	H 	0.1195	0.2959	0.9534	-0.023
Mof_C 	C 	0.1478	0.2993	0.9751	0.145
Mof_C 	C 	0.1855	0.263	0.9758	0.024
Mof_H 	H 	0.1799	0.2324	0.9588	-0.004
Mof_C 	C 	0.1446	0.794	0.5078	-0.08
Mof_C 	C 	0.1796	0.7558	0.5081	0.028
Mof_H 	H 	0.1703	0.722	0.5135	0.019
Mof_Cl	Cl	0.082	0.7761	0.5181	-0.236
Mof_H 	H 	0.1103	0.7852	0.5134	0.221
Mof_Cl	Cl	0.0945	0.7783	0.4401	-0.149
Mof_H 	H 	0.1195	0.7959	0.4534	0.196
Mof_C 	C 	0.1478	0.7993	0.4751	-0.046
Mof_C 	C 	0.1855	0.763	0.4758	-0.03
Mof_H 	H 	0.1799	0.7324	0.4588	0.064
Mof_C 	C 	0.3554	0.706	0.5078	-0.092
Mof_C 	C 	0.3204	0.7442	0.5081	0.025
Mof_H 	H 	0.3297	0.778	0.5135	0.022
Mof_Cl	Cl	0.418	0.7239	0.5181	-0.186
Mof_H 	H 	0.3897	0.7148	0.5134	0.199
Mof_Cl	Cl	0.4055	0.7217	0.4401	-0.246
Mof_H 	H 	0.3805	0.7041	0.4534	0.235
Mof_C 	C 	0.3522	0.7007	0.4751	-0.036
Mof_C 	C 	0.3145	0.737	0.4758	-0.024
Mof_H 	H 	0.3201	0.7676	0.4588	0.065
Mof_C 	C 	0.3554	0.206	0.0078	0.045
Mof_C 	C 	0.3204	0.2442	0.0081	0.171
Mof_H 	H 	0.3297	0.278	0.0135	-0.17
Mof_Cl	Cl	0.418	0.2239	0.0181	-0.301
Mof_H 	H 	0.3897	0.2148	0.0134	0.173
Mof_Cl	Cl	0.4055	0.2217	0.9401	0.085
Mof_H 	H 	0.3805	0.2041	0.9534	0.028
Mof_C 	C 	0.3522	0.2007	0.9751	0.153
Mof_C 	C 	0.3145	0.237	0.9758	0.039
Mof_H 	H 	0.3201	0.2676	0.9588	-0.006
Mof_C 	C 	0.8554	0.706	0.0078	-0.048
Mof_C 	C 	0.8204	0.7442	0.0081	0.161
Mof_H 	H 	0.8297	0.778	0.0135	-0.153
Mof_Cl	Cl	0.918	0.7239	0.0181	-0.158
Mof_H 	H 	0.8897	0.7148	0.0134	0.147
Mof_Cl	Cl	0.9055	0.7217	0.9401	-0.277
Mof_H 	H 	0.8805	0.7041	0.9534	0.155
Mof_C 	C 	0.8522	0.7007	0.9751	0.255
Mof_C 	C 	0.8145	0.737	0.9758	0.033
Mof_H 	H 	0.8201	0.7676	0.9588	0.005
Mof_C 	C 	0.8554	0.206	0.5078	-0.162
Mof_C 	C 	0.8204	0.2442	0.5081	0.015
Mof_H 	H 	0.8297	0.278	0.5135	0.026
Mof_Cl	Cl	0.918	0.2239	0.5181	-0.037
Mof_H 	H 	0.8897	0.2148	0.5134	0.149
Mof_Cl	Cl	0.9055	0.2217	0.4401	-0.607
Mof_H 	H 	0.8805	0.2041	0.4534	0.373
Mof_C 	C 	0.8522	0.2007	0.4751	0.029
Mof_C 	C 	0.8145	0.237	0.4758	-0
Mof_H 	H 	0.8201	0.2676	0.4588	0.059
Mof_C 	C 	0.706	0.5078	0.3554	-0.092
Mof_C 	C 	0.7442	0.5081	0.3204	0.025
Mof_H 	H 	0.778	0.5135	0.3297	0.022
Mof_Cl	Cl	0.7239	0.5181	0.418	-0.186
Mof_H 	H 	0.7148	0.5134	0.3897	0.199
Mof_Cl	Cl	0.7217	0.4401	0.4055	-0.246
Mof_H 	H 	0.7041	0.4534	0.3805	0.235
Mof_C 	C 	0.7007	0.4751	0.3522	-0.036
Mof_C 	C 	0.737	0.4758	0.3145	-0.024
Mof_H 	H 	0.7676	0.4588	0.3201	0.065
Mof_C 	C 	0.706	0.0078	0.8554	-0.048
Mof_C 	C 	0.7442	0.0081	0.8204	0.161
Mof_H 	H 	0.778	0.0135	0.8297	-0.153
Mof_Cl	Cl	0.7239	0.0181	0.918	-0.158
Mof_H 	H 	0.7148	0.0134	0.8897	0.147
Mof_Cl	Cl	0.7217	0.9401	0.9055	-0.277
Mof_H 	H 	0.7041	0.9534	0.8805	0.155
Mof_C 	C 	0.7007	0.9751	0.8522	0.255
Mof_C 	C 	0.737	0.9758	0.8145	0.033
Mof_H 	H 	0.7676	0.9588	0.8201	0.005
Mof_C 	C 	0.206	0.5078	0.8554	-0.162
Mof_C 	C 	0.2442	0.5081	0.8204	0.015
Mof_H 	H 	0.278	0.5135	0.8297	0.026
Mof_Cl	Cl	0.2239	0.5181	0.918	-0.037
Mof_H 	H 	0.2148	0.5134	0.8897	0.149
Mof_Cl	Cl	0.2217	0.4401	0.9055	-0.607
Mof_H 	H 	0.2041	0.4534	0.8805	0.373
Mof_C 	C 	0.2007	0.4751	0.8522	0.029
Mof_C 	C 	0.237	0.4758	0.8145	-0
Mof_H 	H 	0.2676	0.4588	0.8201	0.059
Mof_C 	C 	0.206	0.0078	0.3554	0.045
Mof_C 	C 	0.2442	0.0081	0.3204	0.171
Mof_H 	H 	0.278	0.0135	0.3297	-0.17
Mof_Cl	Cl	0.2239	0.0181	0.418	-0.301
Mof_H 	H 	0.2148	0.0134	0.3897	0.173
Mof_Cl	Cl	0.2217	0.9401	0.4055	0.085
Mof_H 	H 	0.2041	0.9534	0.3805	0.028
Mof_C 	C 	0.2007	0.9751	0.3522	0.153
Mof_C 	C 	0.237	0.9758	0.3145	0.039
Mof_H 	H 	0.2676	0.9588	0.3201	-0.006
Mof_C 	C 	0.294	0.5078	0.6446	-0.092
Mof_C 	C 	0.2558	0.5081	0.6796	0.024
Mof_H 	H 	0.222	0.5135	0.6703	0.02
Mof_Cl	Cl	0.2761	0.5181	0.582	-0.189
Mof_H 	H 	0.2852	0.5134	0.6103	0.2
Mof_Cl	Cl	0.2783	0.4401	0.5945	-0.25
Mof_H 	H 	0.2959	0.4534	0.6195	0.236
Mof_C 	C 	0.2993	0.4751	0.6478	-0.038
Mof_C 	C 	0.263	0.4758	0.6855	-0.021
Mof_H 	H 	0.2324	0.4588	0.6799	0.061
Mof_C 	C 	0.294	0.0078	0.1446	0.061
Mof_C 	C 	0.2558	0.0081	0.1796	0.178
Mof_H 	H 	0.222	0.0135	0.1703	-0.174
Mof_Cl	Cl	0.2761	0.0181	0.082	-0.359
Mof_H 	H 	0.2852	0.0134	0.1103	0.2
Mof_Cl	Cl	0.2783	0.9401	0.0945	0.208
Mof_H 	H 	0.2959	0.9534	0.1195	-0.023
Mof_C 	C 	0.2993	0.9751	0.1478	0.145
Mof_C 	C 	0.263	0.9758	0.1855	0.024
Mof_H 	H 	0.2324	0.9588	0.1799	-0.004
Mof_C 	C 	0.794	0.5078	0.1446	-0.08
Mof_C 	C 	0.7558	0.5081	0.1796	0.028
Mof_H 	H 	0.722	0.5135	0.1703	0.019
Mof_Cl	Cl	0.7761	0.5181	0.082	-0.236
Mof_H 	H 	0.7852	0.5134	0.1103	0.221
Mof_Cl	Cl	0.7783	0.4401	0.0945	-0.149
Mof_H 	H 	0.7959	0.4534	0.1195	0.196
Mof_C 	C 	0.7993	0.4751	0.1478	-0.046
Mof_C 	C 	0.763	0.4758	0.1855	-0.03
Mof_H 	H 	0.7324	0.4588	0.1799	0.064
Mof_C 	C 	0.794	0.0078	0.6446	0.041
Mof_C 	C 	0.7558	0.0081	0.6796	0.155
Mof_H 	H 	0.722	0.0135	0.6703	-0.162
Mof_Cl	Cl	0.7761	0.0181	0.582	-0.29
Mof_H 	H 	0.7852	0.0134	0.6103	0.165
Mof_Cl	Cl	0.7783	0.9401	0.5945	0.063
Mof_H 	H 	0.7959	0.9534	0.6195	0.041
Mof_C 	C 	0.7993	0.9751	0.6478	0.136
Mof_C 	C 	0.763	0.9758	0.6855	0.053
Mof_H 	H 	0.7324	0.9588	0.6799	-0.009
Mof_C 	C 	0.294	0.4922	0.3554	-0.093
Mof_C 	C 	0.2558	0.4919	0.3204	0.026
Mof_H 	H 	0.222	0.4865	0.3297	0.019
Mof_Cl	Cl	0.2761	0.4819	0.418	-0.19
Mof_H 	H 	0.2852	0.4866	0.3897	0.201
Mof_Cl	Cl	0.2783	0.5599	0.4055	-0.249
Mof_H 	H 	0.2959	0.5466	0.3805	0.236
Mof_C 	C 	0.2993	0.5249	0.3522	-0.038
Mof_C 	C 	0.263	0.5242	0.3145	-0.022
Mof_H 	H 	0.2324	0.5412	0.3201	0.061
Mof_C 	C 	0.294	0.9922	0.8554	-0.163
Mof_C 	C 	0.2558	0.9919	0.8204	-0.059
Mof_H 	H 	0.222	0.9865	0.8297	0.189
Mof_Cl	Cl	0.2761	0.9819	0.918	0.023
Mof_H 	H 	0.2852	0.9866	0.8897	0.155
Mof_Cl	Cl	0.2783	0.0599	0.9055	-0.715
Mof_H 	H 	0.2959	0.0466	0.8805	0.518
Mof_C 	C 	0.2993	0.0249	0.8522	-0.244
Mof_C 	C 	0.263	0.0242	0.8145	-0.104
Mof_H 	H 	0.2324	0.0412	0.8201	0.139
Mof_C 	C 	0.794	0.4922	0.8554	-0.165
Mof_C 	C 	0.7558	0.4919	0.8204	0.014
Mof_H 	H 	0.722	0.4865	0.8297	0.027
Mof_Cl	Cl	0.7761	0.4819	0.918	-0.048
Mof_H 	H 	0.7852	0.4866	0.8897	0.156
Mof_Cl	Cl	0.7783	0.5599	0.9055	-0.581
Mof_H 	H 	0.7959	0.5466	0.8805	0.358
Mof_C 	C 	0.7993	0.5249	0.8522	0.038
Mof_C 	C 	0.763	0.5242	0.8145	-0.003
Mof_H 	H 	0.7324	0.5412	0.8201	0.06
Mof_C 	C 	0.794	0.9922	0.3554	-0.104
Mof_C 	C 	0.7558	0.9919	0.3204	-0.042
Mof_H 	H 	0.722	0.9865	0.3297	0.187
Mof_Cl	Cl	0.7761	0.9819	0.418	-0.142
Mof_H 	H 	0.7852	0.9866	0.3897	0.226
Mof_Cl	Cl	0.7783	0.0599	0.4055	-0.329
Mof_H 	H 	0.7959	0.0466	0.3805	0.362
Mof_C 	C 	0.7993	0.0249	0.3522	-0.279
Mof_C 	C 	0.763	0.0242	0.3145	-0.146
Mof_H 	H 	0.7324	0.0412	0.3201	0.152
Mof_C 	C 	0.706	0.4922	0.6446	-0.091
Mof_C 	C 	0.7442	0.4919	0.6796	0.023
Mof_H 	H 	0.778	0.4865	0.6703	0.022
Mof_Cl	Cl	0.7239	0.4819	0.582	-0.186
Mof_H 	H 	0.7148	0.4866	0.6103	0.198
Mof_Cl	Cl	0.7217	0.5599	0.5945	-0.246
Mof_H 	H 	0.7041	0.5466	0.6195	0.235
Mof_C 	C 	0.7007	0.5249	0.6478	-0.037
Mof_C 	C 	0.737	0.5242	0.6855	-0.023
Mof_H 	H 	0.7676	0.5412	0.6799	0.064
Mof_C 	C 	0.706	0.9922	0.1446	-0.062
Mof_C 	C 	0.7442	0.9919	0.1796	-0.047
Mof_H 	H 	0.778	0.9865	0.1703	0.184
Mof_Cl	Cl	0.7239	0.9819	0.082	-0.179
Mof_H 	H 	0.7148	0.9866	0.1103	0.221
Mof_Cl	Cl	0.7217	0.0599	0.0945	-0.227
Mof_H 	H 	0.7041	0.0466	0.1195	0.338
Mof_C 	C 	0.7007	0.0249	0.1478	-0.346
Mof_C 	C 	0.737	0.0242	0.1855	-0.133
Mof_H 	H 	0.7676	0.0412	0.1799	0.145
Mof_C 	C 	0.206	0.4922	0.1446	-0.07
Mof_C 	C 	0.2442	0.4919	0.1796	0.03
Mof_H 	H 	0.278	0.4865	0.1703	0.017
Mof_Cl	Cl	0.2239	0.4819	0.082	-0.235
Mof_H 	H 	0.2148	0.4866	0.1103	0.215
Mof_Cl	Cl	0.2217	0.5599	0.0945	-0.146
Mof_H 	H 	0.2041	0.5466	0.1195	0.2
Mof_C 	C 	0.2007	0.5249	0.1478	-0.063
Mof_C 	C 	0.237	0.5242	0.1855	-0.029
Mof_H 	H 	0.2676	0.5412	0.1799	0.063
Mof_C 	C 	0.206	0.9922	0.6446	-0.095
Mof_C 	C 	0.2442	0.9919	0.6796	-0.043
Mof_H 	H 	0.278	0.9865	0.6703	0.187
Mof_Cl	Cl	0.2239	0.9819	0.582	-0.138
Mof_H 	H 	0.2148	0.9866	0.6103	0.219
Mof_Cl	Cl	0.2217	0.0599	0.5945	-0.333
Mof_H 	H 	0.2041	0.0466	0.6195	0.37
Mof_C 	C 	0.2007	0.0249	0.6478	-0.298
Mof_C 	C 	0.237	0.0242	0.6855	-0.145
Mof_H 	H 	0.2676	0.0412	0.6799	0.151
Mof_C 	C 	0.5078	0.6446	0.294	-0.092
Mof_C 	C 	0.5081	0.6796	0.2558	0.024
Mof_H 	H 	0.5135	0.6703	0.222	0.02
Mof_Cl	Cl	0.5181	0.582	0.2761	-0.189
Mof_H 	H 	0.5134	0.6103	0.2852	0.2
Mof_Cl	Cl	0.4401	0.5945	0.2783	-0.25
Mof_H 	H 	0.4534	0.6195	0.2959	0.236
Mof_C 	C 	0.4751	0.6478	0.2993	-0.038
Mof_C 	C 	0.4758	0.6855	0.263	-0.021
Mof_H 	H 	0.4588	0.6799	0.2324	0.061
Mof_C 	C 	0.5078	0.1446	0.794	-0.08
Mof_C 	C 	0.5081	0.1796	0.7558	0.028
Mof_H 	H 	0.5135	0.1703	0.722	0.019
Mof_Cl	Cl	0.5181	0.082	0.7761	-0.236
Mof_H 	H 	0.5134	0.1103	0.7852	0.221
Mof_Cl	Cl	0.4401	0.0945	0.7783	-0.149
Mof_H 	H 	0.4534	0.1195	0.7959	0.196
Mof_C 	C 	0.4751	0.1478	0.7993	-0.046
Mof_C 	C 	0.4758	0.1855	0.763	-0.03
Mof_H 	H 	0.4588	0.1799	0.7324	0.064
Mof_C 	C 	0.0078	0.6446	0.794	0.041
Mof_C 	C 	0.0081	0.6796	0.7558	0.155
Mof_H 	H 	0.0135	0.6703	0.722	-0.162
Mof_Cl	Cl	0.0181	0.582	0.7761	-0.29
Mof_H 	H 	0.0134	0.6103	0.7852	0.165
Mof_Cl	Cl	0.9401	0.5945	0.7783	0.063
Mof_H 	H 	0.9534	0.6195	0.7959	0.041
Mof_C 	C 	0.9751	0.6478	0.7993	0.136
Mof_C 	C 	0.9758	0.6855	0.763	0.053
Mof_H 	H 	0.9588	0.6799	0.7324	-0.009
Mof_C 	C 	0.0078	0.1446	0.294	0.061
Mof_C 	C 	0.0081	0.1796	0.2558	0.178
Mof_H 	H 	0.0135	0.1703	0.222	-0.174
Mof_Cl	Cl	0.0181	0.082	0.2761	-0.359
Mof_H 	H 	0.0134	0.1103	0.2852	0.2
Mof_Cl	Cl	0.9401	0.0945	0.2783	0.208
Mof_H 	H 	0.9534	0.1195	0.2959	-0.023
Mof_C 	C 	0.9751	0.1478	0.2993	0.145
Mof_C 	C 	0.9758	0.1855	0.263	0.024
Mof_H 	H 	0.9588	0.1799	0.2324	-0.004
Mof_C 	C 	0.5078	0.3554	0.706	-0.092
Mof_C 	C 	0.5081	0.3204	0.7442	0.025
Mof_H 	H 	0.5135	0.3297	0.778	0.022
Mof_Cl	Cl	0.5181	0.418	0.7239	-0.186
Mof_H 	H 	0.5134	0.3897	0.7148	0.199
Mof_Cl	Cl	0.4401	0.4055	0.7217	-0.246
Mof_H 	H 	0.4534	0.3805	0.7041	0.235
Mof_C 	C 	0.4751	0.3522	0.7007	-0.036
Mof_C 	C 	0.4758	0.3145	0.737	-0.024
Mof_H 	H 	0.4588	0.3201	0.7676	0.065
Mof_C 	C 	0.5078	0.8554	0.206	-0.162
Mof_C 	C 	0.5081	0.8204	0.2442	0.015
Mof_H 	H 	0.5135	0.8297	0.278	0.026
Mof_Cl	Cl	0.5181	0.918	0.2239	-0.037
Mof_H 	H 	0.5134	0.8897	0.2148	0.149
Mof_Cl	Cl	0.4401	0.9055	0.2217	-0.607
Mof_H 	H 	0.4534	0.8805	0.2041	0.373
Mof_C 	C 	0.4751	0.8522	0.2007	0.029
Mof_C 	C 	0.4758	0.8145	0.237	-0
Mof_H 	H 	0.4588	0.8201	0.2676	0.059
Mof_C 	C 	0.0078	0.3554	0.206	0.045
Mof_C 	C 	0.0081	0.3204	0.2442	0.171
Mof_H 	H 	0.0135	0.3297	0.278	-0.17
Mof_Cl	Cl	0.0181	0.418	0.2239	-0.301
Mof_H 	H 	0.0134	0.3897	0.2148	0.173
Mof_Cl	Cl	0.9401	0.4055	0.2217	0.085
Mof_H 	H 	0.9534	0.3805	0.2041	0.028
Mof_C 	C 	0.9751	0.3522	0.2007	0.153
Mof_C 	C 	0.9758	0.3145	0.237	0.039
Mof_H 	H 	0.9588	0.3201	0.2676	-0.006
Mof_C 	C 	0.0078	0.8554	0.706	-0.048
Mof_C 	C 	0.0081	0.8204	0.7442	0.161
Mof_H 	H 	0.0135	0.8297	0.778	-0.153
Mof_Cl	Cl	0.0181	0.918	0.7239	-0.158
Mof_H 	H 	0.0134	0.8897	0.7148	0.147
Mof_Cl	Cl	0.9401	0.9055	0.7217	-0.277
Mof_H 	H 	0.9534	0.8805	0.7041	0.155
Mof_C 	C 	0.9751	0.8522	0.7007	0.255
Mof_C 	C 	0.9758	0.8145	0.737	0.033
Mof_H 	H 	0.9588	0.8201	0.7676	0.005
Mof_C 	C 	0.4922	0.6446	0.706	-0.091
Mof_C 	C 	0.4919	0.6796	0.7442	0.023
Mof_H 	H 	0.4865	0.6703	0.778	0.022
Mof_Cl	Cl	0.4819	0.582	0.7239	-0.186
Mof_H 	H 	0.4866	0.6103	0.7148	0.198
Mof_Cl	Cl	0.5599	0.5945	0.7217	-0.246
Mof_H 	H 	0.5466	0.6195	0.7041	0.235
Mof_C 	C 	0.5249	0.6478	0.7007	-0.037
Mof_C 	C 	0.5242	0.6855	0.737	-0.023
Mof_H 	H 	0.5412	0.6799	0.7676	0.064
Mof_C 	C 	0.4922	0.1446	0.206	-0.07
Mof_C 	C 	0.4919	0.1796	0.2442	0.03
Mof_H 	H 	0.4865	0.1703	0.278	0.017
Mof_Cl	Cl	0.4819	0.082	0.2239	-0.235
Mof_H 	H 	0.4866	0.1103	0.2148	0.215
Mof_Cl	Cl	0.5599	0.0945	0.2217	-0.146
Mof_H 	H 	0.5466	0.1195	0.2041	0.2
Mof_C 	C 	0.5249	0.1478	0.2007	-0.063
Mof_C 	C 	0.5242	0.1855	0.237	-0.029
Mof_H 	H 	0.5412	0.1799	0.2676	0.063
Mof_C 	C 	0.9922	0.6446	0.206	-0.095
Mof_C 	C 	0.9919	0.6796	0.2442	-0.043
Mof_H 	H 	0.9865	0.6703	0.278	0.187
Mof_Cl	Cl	0.9819	0.582	0.2239	-0.138
Mof_H 	H 	0.9866	0.6103	0.2148	0.219
Mof_Cl	Cl	0.0599	0.5945	0.2217	-0.333
Mof_H 	H 	0.0466	0.6195	0.2041	0.37
Mof_C 	C 	0.0249	0.6478	0.2007	-0.298
Mof_C 	C 	0.0242	0.6855	0.237	-0.145
Mof_H 	H 	0.0412	0.6799	0.2676	0.151
Mof_C 	C 	0.9922	0.1446	0.706	-0.062
Mof_C 	C 	0.9919	0.1796	0.7442	-0.047
Mof_H 	H 	0.9865	0.1703	0.778	0.184
Mof_Cl	Cl	0.9819	0.082	0.7239	-0.179
Mof_H 	H 	0.9866	0.1103	0.7148	0.221
Mof_Cl	Cl	0.0599	0.0945	0.7217	-0.227
Mof_H 	H 	0.0466	0.1195	0.7041	0.338
Mof_C 	C 	0.0249	0.1478	0.7007	-0.346
Mof_C 	C 	0.0242	0.1855	0.737	-0.133
Mof_H 	H 	0.0412	0.1799	0.7676	0.145
Mof_C 	C 	0.4922	0.3554	0.294	-0.093
Mof_C 	C 	0.4919	0.3204	0.2558	0.026
Mof_H 	H 	0.4865	0.3297	0.222	0.019
Mof_Cl	Cl	0.4819	0.418	0.2761	-0.19
Mof_H 	H 	0.4866	0.3897	0.2852	0.201
Mof_Cl	Cl	0.5599	0.4055	0.2783	-0.249
Mof_H 	H 	0.5466	0.3805	0.2959	0.236
Mof_C 	C 	0.5249	0.3522	0.2993	-0.038
Mof_C 	C 	0.5242	0.3145	0.263	-0.022
Mof_H 	H 	0.5412	0.3201	0.2324	0.061
Mof_C 	C 	0.4922	0.8554	0.794	-0.165
Mof_C 	C 	0.4919	0.8204	0.7558	0.014
Mof_H 	H 	0.4865	0.8297	0.722	0.027
Mof_Cl	Cl	0.4819	0.918	0.7761	-0.048
Mof_H 	H 	0.4866	0.8897	0.7852	0.156
Mof_Cl	Cl	0.5599	0.9055	0.7783	-0.581
Mof_H 	H 	0.5466	0.8805	0.7959	0.358
Mof_C 	C 	0.5249	0.8522	0.7993	0.038
Mof_C 	C 	0.5242	0.8145	0.763	-0.003
Mof_H 	H 	0.5412	0.8201	0.7324	0.06
Mof_C 	C 	0.9922	0.3554	0.794	-0.104
Mof_C 	C 	0.9919	0.3204	0.7558	-0.042
Mof_H 	H 	0.9865	0.3297	0.722	0.187
Mof_Cl	Cl	0.9819	0.418	0.7761	-0.142
Mof_H 	H 	0.9866	0.3897	0.7852	0.226
Mof_Cl	Cl	0.0599	0.4055	0.7783	-0.329
Mof_H 	H 	0.0466	0.3805	0.7959	0.362
Mof_C 	C 	0.0249	0.3522	0.7993	-0.279
Mof_C 	C 	0.0242	0.3145	0.763	-0.146
Mof_H 	H 	0.0412	0.3201	0.7324	0.152
Mof_C 	C 	0.9922	0.8554	0.294	-0.163
Mof_C 	C 	0.9919	0.8204	0.2558	-0.059
Mof_H 	H 	0.9865	0.8297	0.222	0.189
Mof_Cl	Cl	0.9819	0.918	0.2761	0.023
Mof_H 	H 	0.9866	0.8897	0.2852	0.155
Mof_Cl	Cl	0.0599	0.9055	0.2783	-0.715
Mof_H 	H 	0.0466	0.8805	0.2959	0.518
Mof_C 	C 	0.0249	0.8522	0.2993	-0.244
Mof_C 	C 	0.0242	0.8145	0.263	-0.104
Mof_H 	H 	0.0412	0.8201	0.2324	0.139
Mof_Zr	Zr	0.40789	0.5	0.5	3.247
Mof_Zr	Zr	0.40789	0	-0	3.231
Mof_Zr	Zr	0.90789	0.5	-0	3.238
Mof_Zr	Zr	0.90789	5.25378e-33	0.5	3.238
Mof_Zr	Zr	0.59211	0.5	0.5	3.247
Mof_Zr	Zr	0.59211	0	-0	3.231
Mof_Zr	Zr	0.09211	0.5	-0	3.24
Mof_Zr	Zr	0.09211	5.25378e-33	0.5	3.24
Mof_Zr	Zr	0.5	0.40789	0.5	3.247
Mof_Zr	Zr	0.5	0.90789	-0	3.238
Mof_Zr	Zr	-0	0.40789	-0	3.231
Mof_Zr	Zr	2.28898e-32	0.90789	0.5	3.238
Mof_Zr	Zr	0.5	0.59211	0.5	3.247
Mof_Zr	Zr	0.5	0.09211	-0	3.24
Mof_Zr	Zr	5.25378e-33	0.59211	-0	3.231
Mof_Zr	Zr	1.23823e-32	0.09211	0.5	3.24
Mof_Zr	Zr	0.5	0.5	0.40789	3.247
Mof_Zr	Zr	0.5	1.05076e-32	0.90789	3.238
Mof_Zr	Zr	1.39116e-32	0.5	0.90789	3.238
Mof_Zr	Zr	1.52934e-33	0	0.40789	3.231
Mof_Zr	Zr	0.5	0.5	0.59211	3.247
Mof_Zr	Zr	0.5	6.56723e-34	0.09211	3.24
Mof_Zr	Zr	1.01962e-32	0.5	0.09211	3.24
Mof_Zr	Zr	7.47384e-33	5.25378e-33	0.59211	3.231
Mof_O 	O 	0.4604	0.5396	0.5396	-1.854
Mof_O 	O 	0.4472	0.5528	0.5528	0.816
Mof_O 	O 	0.4604	0.0396	0.0396	-1.996
Mof_O 	O 	0.4472	0.0528	0.0528	0.928
Mof_O 	O 	0.9604	0.5396	0.0396	-1.855
Mof_O 	O 	0.9472	0.5528	0.0528	0.846
Mof_O 	O 	0.9604	0.0396	0.5396	-1.855
Mof_O 	O 	0.9472	0.0528	0.5528	0.846
Mof_O 	O 	0.5396	0.4604	0.5396	-1.854
Mof_O 	O 	0.5528	0.4472	0.5528	0.816
Mof_O 	O 	0.5396	0.9604	0.0396	-1.855
Mof_O 	O 	0.5528	0.9472	0.0528	0.846
Mof_O 	O 	0.0396	0.4604	0.0396	-1.996
Mof_O 	O 	0.0528	0.4472	0.0528	0.928
Mof_O 	O 	0.0396	0.9604	0.5396	-1.855
Mof_O 	O 	0.0528	0.9472	0.5528	0.846
Mof_O 	O 	0.5396	0.5396	0.4604	-1.854
Mof_O 	O 	0.5528	0.5528	0.4472	0.816
Mof_O 	O 	0.5396	0.0396	0.9604	-1.855
Mof_O 	O 	0.5528	0.0528	0.9472	0.846
Mof_O 	O 	0.0396	0.5396	0.9604	-1.855
Mof_O 	O 	0.0528	0.5528	0.9472	0.846
Mof_O 	O 	0.0396	0.0396	0.4604	-1.996
Mof_O 	O 	0.0528	0.0528	0.4472	0.928
Mof_O 	O 	0.4604	0.4604	0.4604	-1.854
Mof_O 	O 	0.4472	0.4472	0.4472	0.816
Mof_O 	O 	0.4604	0.9604	0.9604	-1.726
Mof_O 	O 	0.4472	0.9472	0.9472	0.772
Mof_O 	O 	0.9604	0.4604	0.9604	-1.726
Mof_O 	O 	0.9472	0.4472	0.9472	0.772
Mof_O 	O 	0.9604	0.9604	0.4604	-1.726
Mof_O 	O 	0.9472	0.9472	0.4472	0.772
Mof_O 	O 	0.5396	0.4604	0.4604	-1.854
Mof_O 	O 	0.5528	0.4472	0.4472	0.816
Mof_O 	O 	0.5396	0.9604	0.9604	-1.726
Mof_O 	O 	0.5528	0.9472	0.9472	0.771
Mof_O 	O 	0.0396	0.4604	0.9604	-1.855
Mof_O 	O 	0.0528	0.4472	0.9472	0.847
Mof_O 	O 	0.0396	0.9604	0.4604	-1.855
Mof_O 	O 	0.0528	0.9472	0.4472	0.847
Mof_O 	O 	0.4604	0.5396	0.4604	-1.854
Mof_O 	O 	0.4472	0.5528	0.4472	0.816
Mof_O 	O 	0.4604	0.0396	0.9604	-1.855
Mof_O 	O 	0.4472	0.0528	0.9472	0.847
Mof_O 	O 	0.9604	0.5396	0.9604	-1.726
Mof_O 	O 	0.9472	0.5528	0.9472	0.771
Mof_O 	O 	0.9604	0.0396	0.4604	-1.855
Mof_O 	O 	0.9472	0.0528	0.4472	0.847
Mof_O 	O 	0.5396	0.5396	0.5396	-1.854
Mof_O 	O 	0.5528	0.5528	0.5528	0.816
Mof_O 	O 	0.5396	0.0396	0.0396	-1.995
Mof_O 	O 	0.5528	0.0528	0.0528	0.927
Mof_O 	O 	0.0396	0.5396	0.0396	-1.995
Mof_O 	O 	0.0528	0.5528	0.0528	0.927
Mof_O 	O 	0.0396	0.0396	0.5396	-1.995
Mof_O 	O 	0.0528	0.0528	0.5528	0.927
Mof_O 	O 	0.4604	0.4604	0.5396	-1.854
Mof_O 	O 	0.4472	0.4472	0.5528	0.816
Mof_O 	O 	0.4604	0.9604	0.0396	-1.855
Mof_O 	O 	0.4472	0.9472	0.0528	0.847
Mof_O 	O 	0.9604	0.4604	0.0396	-1.855
Mof_O 	O 	0.9472	0.4472	0.0528	0.847
Mof_O 	O 	0.9604	0.9604	0.5396	-1.726
Mof_O 	O 	0.9472	0.9472	0.5528	0.771
Mof_O 	O 	0.36723	0.42798	0.5	-0.58
Mof_O 	O 	0.36723	0.92798	-0	-0.6
Mof_O 	O 	0.86723	0.42798	-0	-0.62
Mof_O 	O 	0.86723	0.92798	0.5	-0.556
Mof_O 	O 	0.63277	0.57202	0.5	-0.581
Mof_O 	O 	0.63277	0.07202	-0	-0.627
Mof_O 	O 	0.13277	0.57202	-0	-0.625
Mof_O 	O 	0.13277	0.07202	0.5	-0.585
Mof_O 	O 	0.63277	0.42798	0.5	-0.581
Mof_O 	O 	0.63277	0.92798	-0	-0.601
Mof_O 	O 	0.13277	0.42798	-0	-0.625
Mof_O 	O 	0.13277	0.92798	0.5	-0.559
Mof_O 	O 	0.36723	0.57202	0.5	-0.581
Mof_O 	O 	0.36723	0.07202	-0	-0.626
Mof_O 	O 	0.86723	0.57202	-0	-0.62
Mof_O 	O 	0.86723	0.07202	0.5	-0.581
Mof_O 	O 	0.5	0.36723	0.42798	-0.58
Mof_O 	O 	0.5	0.86723	0.92798	-0.556
Mof_O 	O 	1.39869e-32	0.36723	0.92798	-0.6
Mof_O 	O 	1.21122e-32	0.86723	0.42798	-0.62
Mof_O 	O 	0.5	0.63277	0.57202	-0.581
Mof_O 	O 	0.5	0.13277	0.07202	-0.585
Mof_O 	O 	2.89692e-33	0.63277	0.07202	-0.627
Mof_O 	O 	1.26523e-32	0.13277	0.57202	-0.625
Mof_O 	O 	0.5	0.63277	0.42798	-0.581
Mof_O 	O 	0.5	0.13277	0.92798	-0.559
Mof_O 	O 	1.39869e-32	0.63277	0.92798	-0.601
Mof_O 	O 	1.60467e-33	0.13277	0.42798	-0.625
Mof_O 	O 	0.5	0.36723	0.57202	-0.581
Mof_O 	O 	0.5	0.86723	0.07202	-0.581
Mof_O 	O 	-2.35686e-33	0.36723	0.07202	-0.626
Mof_O 	O 	2.14473e-33	0.86723	0.57202	-0.62
Mof_O 	O 	0.42798	0.5	0.36723	-0.58
Mof_O 	O 	0.42798	1.05076e-32	0.86723	-0.62
Mof_O 	O 	0.92798	0.5	0.86723	-0.556
Mof_O 	O 	0.92798	0	0.36723	-0.6
Mof_O 	O 	0.57202	0.5	0.63277	-0.581
Mof_O 	O 	0.57202	0	0.13277	-0.625
Mof_O 	O 	0.07202	0.5	0.13277	-0.585
Mof_O 	O 	0.07202	0	0.63277	-0.627
Mof_O 	O 	0.42798	0.5	0.63277	-0.581
Mof_O 	O 	0.42798	0	0.13277	-0.625
Mof_O 	O 	0.92798	0.5	0.13277	-0.559
Mof_O 	O 	0.92798	0	0.63277	-0.601
Mof_O 	O 	0.57202	0.5	0.36723	-0.581
Mof_O 	O 	0.57202	1.05076e-32	0.86723	-0.62
Mof_O 	O 	0.07202	0.5	0.86723	-0.581
Mof_O 	O 	0.07202	0	0.36723	-0.626
Mof_O 	O 	0.42798	0.36723	0.5	-0.58
Mof_O 	O 	0.42798	0.86723	-0	-0.62
Mof_O 	O 	0.92798	0.36723	-0	-0.6
Mof_O 	O 	0.92798	0.86723	0.5	-0.556
Mof_O 	O 	0.57202	0.63277	0.5	-0.581
Mof_O 	O 	0.57202	0.13277	-0	-0.625
Mof_O 	O 	0.07202	0.63277	-0	-0.627
Mof_O 	O 	0.07202	0.13277	0.5	-0.585
Mof_O 	O 	0.42798	0.63277	0.5	-0.581
Mof_O 	O 	0.42798	0.13277	-0	-0.625
Mof_O 	O 	0.92798	0.63277	-0	-0.601
Mof_O 	O 	0.92798	0.13277	0.5	-0.559
Mof_O 	O 	0.57202	0.36723	0.5	-0.581
Mof_O 	O 	0.57202	0.86723	-0	-0.62
Mof_O 	O 	0.07202	0.36723	-0	-0.626
Mof_O 	O 	0.07202	0.86723	0.5	-0.581
Mof_O 	O 	0.36723	0.5	0.57202	-0.581
Mof_O 	O 	0.36723	0	0.07202	-0.626
Mof_O 	O 	0.86723	0.5	0.07202	-0.581
Mof_O 	O 	0.86723	5.25378e-33	0.57202	-0.62
Mof_O 	O 	0.63277	0.5	0.42798	-0.581
Mof_O 	O 	0.63277	1.05076e-32	0.92798	-0.601
Mof_O 	O 	0.13277	0.5	0.92798	-0.559
Mof_O 	O 	0.13277	5.25378e-33	0.42798	-0.625
Mof_O 	O 	0.63277	0.5	0.57202	-0.581
Mof_O 	O 	0.63277	0	0.07202	-0.627
Mof_O 	O 	0.13277	0.5	0.07202	-0.585
Mof_O 	O 	0.13277	5.25378e-33	0.57202	-0.625
Mof_O 	O 	0.36723	0.5	0.42798	-0.58
Mof_O 	O 	0.36723	1.05076e-32	0.92798	-0.6
Mof_O 	O 	0.86723	0.5	0.92798	-0.556
Mof_O 	O 	0.86723	5.25378e-33	0.42798	-0.62
Mof_O 	O 	0.5	0.42798	0.63277	-0.581
Mof_O 	O 	0.5	0.92798	0.13277	-0.559
Mof_O 	O 	4.43815e-33	0.42798	0.13277	-0.625
Mof_O 	O 	1.28801e-32	0.92798	0.63277	-0.601
Mof_O 	O 	0.5	0.57202	0.36723	-0.581
Mof_O 	O 	0.5	0.07202	0.86723	-0.581
Mof_O 	O 	3.25159e-33	0.57202	0.86723	-0.62
Mof_O 	O 	-3.87689e-33	0.07202	0.36723	-0.626
Mof_O 	O 	0.5	0.42798	0.36723	-0.58
Mof_O 	O 	0.5	0.92798	0.86723	-0.556
Mof_O 	O 	3.25159e-33	0.42798	0.86723	-0.62
Mof_O 	O 	1.18845e-32	0.92798	0.36723	-0.6
Mof_O 	O 	0.5	0.57202	0.63277	-0.581
Mof_O 	O 	0.5	0.07202	0.13277	-0.585
Mof_O 	O 	9.69193e-33	0.57202	0.13277	-0.625
Mof_O 	O 	2.37251e-33	0.07202	0.63277	-0.627
Mof_C 	C 	0.38255	0.38255	0.5	0.355
Mof_C 	C 	0.34378	0.34378	0.5	0.058
Mof_C 	C 	0.2699	0.2699	0.5	-0.009
Mof_C 	C 	0.38255	0.88255	-0	0.378
Mof_C 	C 	0.34378	0.84378	-0	-0.057
Mof_C 	C 	0.2699	0.7699	-0	-0.077
Mof_C 	C 	0.88255	0.38255	-0	0.378
Mof_C 	C 	0.84378	0.34378	-0	-0.057
Mof_C 	C 	0.7699	0.2699	-0	-0.077
Mof_C 	C 	0.88255	0.88255	0.5	0.353
Mof_C 	C 	0.84378	0.84378	0.5	0.021
Mof_C 	C 	0.7699	0.7699	0.5	-0.025
Mof_C 	C 	0.61745	0.61745	0.5	0.357
Mof_C 	C 	0.65622	0.65622	0.5	0.053
Mof_C 	C 	0.7301	0.7301	0.5	0.002
Mof_C 	C 	0.61745	0.11745	-0	0.38
Mof_C 	C 	0.65622	0.15622	-0	-0.033
Mof_C 	C 	0.7301	0.2301	-0	-0.057
Mof_C 	C 	0.11745	0.61745	-0	0.38
Mof_C 	C 	0.15622	0.65622	-0	-0.033
Mof_C 	C 	0.2301	0.7301	-0	-0.057
Mof_C 	C 	0.11745	0.11745	0.5	0.355
Mof_C 	C 	0.15622	0.15622	0.5	0.072
Mof_C 	C 	0.2301	0.2301	0.5	-0
Mof_C 	C 	0.61745	0.38255	0.5	0.356
Mof_C 	C 	0.65622	0.34378	0.5	0.055
Mof_C 	C 	0.7301	0.2699	0.5	-0.003
Mof_C 	C 	0.61745	0.88255	-0	0.378
Mof_C 	C 	0.65622	0.84378	-0	-0.057
Mof_C 	C 	0.7301	0.7699	-0	-0.07
Mof_C 	C 	0.11745	0.38255	-0	0.38
Mof_C 	C 	0.15622	0.34378	-0	-0.032
Mof_C 	C 	0.2301	0.2699	-0	-0.064
Mof_C 	C 	0.11745	0.88255	0.5	0.354
Mof_C 	C 	0.15622	0.84378	0.5	0.045
Mof_C 	C 	0.2301	0.7699	0.5	-0.014
Mof_C 	C 	0.38255	0.61745	0.5	0.356
Mof_C 	C 	0.34378	0.65622	0.5	0.055
Mof_C 	C 	0.2699	0.7301	0.5	-0.003
Mof_C 	C 	0.38255	0.11745	-0	0.38
Mof_C 	C 	0.34378	0.15622	-0	-0.032
Mof_C 	C 	0.2699	0.2301	-0	-0.064
Mof_C 	C 	0.88255	0.61745	-0	0.378
Mof_C 	C 	0.84378	0.65622	-0	-0.057
Mof_C 	C 	0.7699	0.7301	-0	-0.07
Mof_C 	C 	0.88255	0.11745	0.5	0.354
Mof_C 	C 	0.84378	0.15622	0.5	0.045
Mof_C 	C 	0.7699	0.2301	0.5	-0.014
Mof_C 	C 	0.5	0.38255	0.38255	0.355
Mof_C 	C 	0.5	0.34378	0.34378	0.058
Mof_C 	C 	0.5	0.2699	0.2699	-0.009
Mof_C 	C 	0.5	0.88255	0.88255	0.353
Mof_C 	C 	0.5	0.84378	0.84378	0.021
Mof_C 	C 	0.5	0.7699	0.7699	-0.025
Mof_C 	C 	3.30903e-33	0.38255	0.88255	0.378
Mof_C 	C 	1.36712e-32	0.34378	0.84378	-0.057
Mof_C 	C 	2.88666e-33	0.2699	0.7699	-0.077
Mof_C 	C 	4.06122e-33	0.88255	0.38255	0.378
Mof_C 	C 	1.70503e-32	0.84378	0.34378	-0.057
Mof_C 	C 	3.63885e-33	0.7699	0.2699	-0.077
Mof_C 	C 	0.5	0.61745	0.61745	0.357
Mof_C 	C 	0.5	0.65622	0.65622	0.053
Mof_C 	C 	0.5	0.7301	0.7301	0.002
Mof_C 	C 	0.5	0.11745	0.11745	0.355
Mof_C 	C 	0.5	0.15622	0.15622	0.072
Mof_C 	C 	0.5	0.2301	0.2301	-0
Mof_C 	C 	1.22614e-32	0.61745	0.11745	0.38
Mof_C 	C 	5.85731e-34	0.65622	0.15622	-0.033
Mof_C 	C 	8.74341e-33	0.7301	0.2301	-0.057
Mof_C 	C 	1.28226e-32	0.11745	0.61745	0.38
Mof_C 	C 	2.46043e-33	0.15622	0.65622	-0.033
Mof_C 	C 	7.99122e-33	0.2301	0.7301	-0.057
Mof_C 	C 	0.5	0.61745	0.38255	0.356
Mof_C 	C 	0.5	0.65622	0.34378	0.055
Mof_C 	C 	0.5	0.7301	0.2699	-0.003
Mof_C 	C 	0.5	0.11745	0.88255	0.354
Mof_C 	C 	0.5	0.15622	0.84378	0.045
Mof_C 	C 	0.5	0.2301	0.7699	-0.014
Mof_C 	C 	2.43242e-32	0.61745	0.88255	0.378
Mof_C 	C 	3.16367e-33	0.65622	0.84378	-0.057
Mof_C 	C 	2.39018e-32	0.7301	0.7699	-0.07
Mof_C 	C 	4.06122e-33	0.11745	0.38255	0.38
Mof_C 	C 	1.28897e-33	0.15622	0.34378	-0.032
Mof_C 	C 	1.01196e-33	0.2301	0.2699	-0.064
Mof_C 	C 	0.5	0.38255	0.61745	0.356
Mof_C 	C 	0.5	0.34378	0.65622	0.055
Mof_C 	C 	0.5	0.2699	0.7301	-0.003
Mof_C 	C 	0.5	0.88255	0.11745	0.354
Mof_C 	C 	0.5	0.84378	0.15622	0.045
Mof_C 	C 	0.5	0.7699	0.2301	-0.014
Mof_C 	C 	4.38071e-33	0.38255	0.11745	0.38
Mof_C 	C 	5.85731e-34	0.34378	0.15622	-0.032
Mof_C 	C 	8.62737e-34	0.2699	0.2301	-0.064
Mof_C 	C 	1.80764e-32	0.88255	0.61745	0.378
Mof_C 	C 	7.71421e-33	0.84378	0.65622	-0.057
Mof_C 	C 	2.37526e-32	0.7699	0.7301	-0.07
Mof_C 	C 	0.38255	0.5	0.38255	0.355
Mof_C 	C 	0.34378	0.5	0.34378	0.058
Mof_C 	C 	0.2699	0.5	0.2699	-0.009
Mof_C 	C 	0.38255	0	0.88255	0.378
Mof_C 	C 	0.34378	0	0.84378	-0.057
Mof_C 	C 	0.2699	5.25378e-33	0.7699	-0.077
Mof_C 	C 	0.88255	0.5	0.88255	0.353
Mof_C 	C 	0.84378	0.5	0.84378	0.021
Mof_C 	C 	0.7699	0.5	0.7699	-0.025
Mof_C 	C 	0.88255	2.62689e-33	0.38255	0.378
Mof_C 	C 	0.84378	0	0.34378	-0.057
Mof_C 	C 	0.7699	2.62689e-33	0.2699	-0.077
Mof_C 	C 	0.61745	0.5	0.61745	0.357
Mof_C 	C 	0.65622	0.5	0.65622	0.053
Mof_C 	C 	0.7301	0.5	0.7301	0.002
Mof_C 	C 	0.61745	1.31345e-33	0.11745	0.38
Mof_C 	C 	0.65622	1.31345e-33	0.15622	-0.033
Mof_C 	C 	0.7301	0	0.2301	-0.057
Mof_C 	C 	0.11745	0.5	0.11745	0.355
Mof_C 	C 	0.15622	0.5	0.15622	0.072
Mof_C 	C 	0.2301	0.5	0.2301	-0
Mof_C 	C 	0.11745	5.25378e-33	0.61745	0.38
Mof_C 	C 	0.15622	0	0.65622	-0.033
Mof_C 	C 	0.2301	5.25378e-33	0.7301	-0.057
Mof_C 	C 	0.38255	0.5	0.61745	0.356
Mof_C 	C 	0.34378	0.5	0.65622	0.055
Mof_C 	C 	0.2699	0.5	0.7301	-0.003
Mof_C 	C 	0.38255	1.31345e-33	0.11745	0.38
Mof_C 	C 	0.34378	1.31345e-33	0.15622	-0.032
Mof_C 	C 	0.2699	0	0.2301	-0.064
Mof_C 	C 	0.88255	0.5	0.11745	0.354
Mof_C 	C 	0.84378	0.5	0.15622	0.045
Mof_C 	C 	0.7699	0.5	0.2301	-0.014
Mof_C 	C 	0.88255	5.25378e-33	0.61745	0.378
Mof_C 	C 	0.84378	0	0.65622	-0.057
Mof_C 	C 	0.7699	5.25378e-33	0.7301	-0.07
Mof_C 	C 	0.61745	0.5	0.38255	0.356
Mof_C 	C 	0.65622	0.5	0.34378	0.055
Mof_C 	C 	0.7301	0.5	0.2699	-0.003
Mof_C 	C 	0.61745	0	0.88255	0.378
Mof_C 	C 	0.65622	0	0.84378	-0.057
Mof_C 	C 	0.7301	5.25378e-33	0.7699	-0.07
Mof_C 	C 	0.11745	0.5	0.88255	0.354
Mof_C 	C 	0.15622	0.5	0.84378	0.045
Mof_C 	C 	0.2301	0.5	0.7699	-0.014
Mof_C 	C 	0.11745	2.62689e-33	0.38255	0.38
Mof_C 	C 	0.15622	0	0.34378	-0.032
Mof_C 	C 	0.2301	2.62689e-33	0.2699	-0.064
_end
