data_functionalizedCrystal
_audit_creation_method	'EQeq! by Chris Wilmer'
_symmetry_space_group_name_H-M	'P1'
_symmetry_Int_Tables_number	1
_symmetry_cell_setting	triclinic
loop_
_symmetry_equiv_pos_as_xyz
  x,y,z
_cell_length_a	14.9603
_cell_length_b	21.8384
_cell_length_c	34.7768
_cell_angle_alpha	90
_cell_angle_beta	90
_cell_angle_gamma	90
loop_
_atom_site_label
_atom_site_type_symbol
_atom_site_fract_x
_atom_site_fract_y
_atom_site_fract_z
_atom_site_charge
Mof_O 	O 	0.8597	0.3027	0.0333	-0.561
Mof_O 	O 	0.9937	0.335	0.0452	-0.519
Mof_O 	O 	0.0105	0.1693	0.8615	-0.502
Mof_O 	O 	0.1472	0.1953	0.8757	-0.502
Mof_C 	C 	0.9401	0.3052	0.024	0.364
Mof_C 	C 	0.065	0.1964	0.8832	0.295
Mof_N 	N 	0.842	0.2147	0.9787	-0.207
Mof_H 	H 	0.8172	0.2295	0.9997	0.119
Mof_H 	H 	0.8124	0.1886	0.9642	0.105
Mof_C 	C 	0.9756	0.2725	0.9895	-0.078
Mof_C 	C 	0.9226	0.2316	0.969	0.094
Mof_C 	C 	0.9522	0.2084	0.934	-0.062
Mof_H 	H 	0.916	0.1805	0.92	0.049
Mof_C 	C 	0.0348	0.2261	0.9195	0.001
Mof_C 	C 	0.0878	0.267	0.94	-0.048
Mof_H 	H 	0.1443	0.2791	0.9301	0.038
Mof_C 	C 	0.0582	0.2902	0.975	0.045
Mof_N 	N 	0.8185	0.2468	0.9667	-0.179
Mof_H 	H 	0.7859	0.2273	0.9495	0.092
Mof_H 	H 	0.7929	0.2628	0.9872	0.088
Mof_C 	C 	0.969	0.278	0.9874	-0.075
Mof_C 	C 	0.9088	0.2522	0.9616	0.065
Mof_C 	C 	0.9397	0.2247	0.9281	-0.051
Mof_H 	H 	0.8985	0.2071	0.9105	0.05
Mof_C 	C 	0.0308	0.223	0.9203	-0.006
Mof_C 	C 	0.091	0.2488	0.9461	-0.055
Mof_H 	H 	0.1533	0.2476	0.9408	0.047
Mof_C 	C 	0.0601	0.2763	0.9796	0.078
Mof_N 	N 	0.131	0.302	0.9984	-0.079
Mof_H 	H 	0.1849	0.2986	0.9887	0.04
Mof_H 	H 	0.1224	0.3208	0.0204	0.068
Mof_N 	N 	0.121	0.3269	0.993	-0.216
Mof_H 	H 	0.1727	0.3334	0.9816	0.104
Mof_H 	H 	0.1085	0.3439	0.015	0.1
Mof_O 	O 	0.8597	0.8027	0.5333	-0.561
Mof_O 	O 	0.9937	0.835	0.5452	-0.519
Mof_O 	O 	0.0105	0.6693	0.3615	-0.502
Mof_O 	O 	0.1472	0.6953	0.3757	-0.502
Mof_C 	C 	0.9401	0.8052	0.524	0.364
Mof_C 	C 	0.065	0.6964	0.3832	0.295
Mof_N 	N 	0.842	0.7147	0.4787	-0.206
Mof_H 	H 	0.8172	0.7295	0.4997	0.119
Mof_H 	H 	0.8124	0.6886	0.4642	0.105
Mof_C 	C 	0.9756	0.7725	0.4895	-0.077
Mof_C 	C 	0.9226	0.7316	0.469	0.094
Mof_C 	C 	0.9522	0.7084	0.434	-0.062
Mof_H 	H 	0.916	0.6805	0.42	0.049
Mof_C 	C 	0.0348	0.7261	0.4195	0
Mof_C 	C 	0.0878	0.767	0.44	-0.048
Mof_H 	H 	0.1443	0.7791	0.4301	0.038
Mof_C 	C 	0.0582	0.7902	0.475	0.045
Mof_N 	N 	0.8185	0.7468	0.4667	-0.179
Mof_H 	H 	0.7859	0.7273	0.4495	0.092
Mof_H 	H 	0.7929	0.7628	0.4872	0.088
Mof_C 	C 	0.969	0.778	0.4874	-0.074
Mof_C 	C 	0.9088	0.7522	0.4616	0.065
Mof_C 	C 	0.9397	0.7247	0.4281	-0.051
Mof_H 	H 	0.8985	0.7071	0.4105	0.05
Mof_C 	C 	0.0308	0.723	0.4203	-0.007
Mof_C 	C 	0.091	0.7488	0.4461	-0.055
Mof_H 	H 	0.1533	0.7476	0.4408	0.047
Mof_C 	C 	0.0601	0.7763	0.4796	0.078
Mof_N 	N 	0.131	0.802	0.4984	-0.079
Mof_H 	H 	0.1849	0.7986	0.4887	0.04
Mof_H 	H 	0.1224	0.8208	0.5204	0.068
Mof_N 	N 	0.121	0.8269	0.493	-0.216
Mof_H 	H 	0.1727	0.8334	0.4816	0.104
Mof_H 	H 	0.1085	0.8439	0.515	0.1
Mof_O 	O 	0.3597	0.3027	0.5333	-0.561
Mof_O 	O 	0.4937	0.335	0.5452	-0.519
Mof_O 	O 	0.5105	0.1693	0.3615	-0.502
Mof_O 	O 	0.6472	0.1953	0.3757	-0.502
Mof_C 	C 	0.4401	0.3052	0.524	0.364
Mof_C 	C 	0.565	0.1964	0.3832	0.295
Mof_N 	N 	0.342	0.2147	0.4787	-0.206
Mof_H 	H 	0.3172	0.2295	0.4997	0.119
Mof_H 	H 	0.3124	0.1886	0.4642	0.105
Mof_C 	C 	0.4756	0.2725	0.4895	-0.077
Mof_C 	C 	0.4226	0.2316	0.469	0.093
Mof_C 	C 	0.4522	0.2084	0.434	-0.062
Mof_H 	H 	0.416	0.1805	0.42	0.05
Mof_C 	C 	0.5348	0.2261	0.4195	0.002
Mof_C 	C 	0.5878	0.267	0.44	-0.047
Mof_H 	H 	0.6443	0.2791	0.4301	0.039
Mof_C 	C 	0.5582	0.2902	0.475	0.046
Mof_N 	N 	0.3185	0.2468	0.4667	-0.178
Mof_H 	H 	0.2859	0.2273	0.4495	0.093
Mof_H 	H 	0.2929	0.2628	0.4872	0.089
Mof_C 	C 	0.469	0.278	0.4874	-0.073
Mof_C 	C 	0.4088	0.2522	0.4616	0.066
Mof_C 	C 	0.4397	0.2247	0.4281	-0.05
Mof_H 	H 	0.3985	0.2071	0.4105	0.051
Mof_C 	C 	0.5308	0.223	0.4203	-0.006
Mof_C 	C 	0.591	0.2488	0.4461	-0.054
Mof_H 	H 	0.6533	0.2476	0.4408	0.048
Mof_C 	C 	0.5601	0.2763	0.4796	0.079
Mof_N 	N 	0.631	0.302	0.4984	-0.079
Mof_H 	H 	0.6849	0.2986	0.4887	0.041
Mof_H 	H 	0.6224	0.3208	0.5204	0.069
Mof_N 	N 	0.621	0.3269	0.493	-0.215
Mof_H 	H 	0.6727	0.3334	0.4816	0.105
Mof_H 	H 	0.6085	0.3439	0.515	0.101
Mof_O 	O 	0.3597	0.8027	0.0333	-0.56
Mof_O 	O 	0.4937	0.835	0.0452	-0.518
Mof_O 	O 	0.5105	0.6693	0.8615	-0.501
Mof_O 	O 	0.6472	0.6953	0.8757	-0.501
Mof_C 	C 	0.4401	0.8052	0.024	0.365
Mof_C 	C 	0.565	0.6964	0.8832	0.296
Mof_N 	N 	0.342	0.7147	0.9787	-0.205
Mof_H 	H 	0.3172	0.7295	0.9997	0.12
Mof_H 	H 	0.3124	0.6886	0.9642	0.106
Mof_C 	C 	0.4756	0.7725	0.9895	-0.076
Mof_C 	C 	0.4226	0.7316	0.969	0.094
Mof_C 	C 	0.4522	0.7084	0.934	-0.061
Mof_H 	H 	0.416	0.6805	0.92	0.05
Mof_C 	C 	0.5348	0.7261	0.9195	0.002
Mof_C 	C 	0.5878	0.767	0.94	-0.047
Mof_H 	H 	0.6443	0.7791	0.9301	0.039
Mof_C 	C 	0.5582	0.7902	0.975	0.046
Mof_N 	N 	0.3185	0.7468	0.9667	-0.178
Mof_H 	H 	0.2859	0.7273	0.9495	0.093
Mof_H 	H 	0.2929	0.7628	0.9872	0.089
Mof_C 	C 	0.469	0.778	0.9874	-0.073
Mof_C 	C 	0.4088	0.7522	0.9616	0.066
Mof_C 	C 	0.4397	0.7247	0.9281	-0.05
Mof_H 	H 	0.3985	0.7071	0.9105	0.051
Mof_C 	C 	0.5308	0.723	0.9203	-0.006
Mof_C 	C 	0.591	0.7488	0.9461	-0.054
Mof_H 	H 	0.6533	0.7476	0.9408	0.048
Mof_C 	C 	0.5601	0.7763	0.9796	0.079
Mof_N 	N 	0.631	0.802	0.9984	-0.079
Mof_H 	H 	0.6849	0.7986	0.9887	0.041
Mof_H 	H 	0.6224	0.8208	0.0204	0.069
Mof_N 	N 	0.621	0.8269	0.993	-0.215
Mof_H 	H 	0.6727	0.8334	0.9816	0.105
Mof_H 	H 	0.6085	0.8439	0.015	0.101
Mof_O 	O 	0.8903	0.4473	0.0333	-0.56
Mof_O 	O 	0.7563	0.415	0.0452	-0.518
Mof_O 	O 	0.7395	0.5807	0.8615	-0.501
Mof_O 	O 	0.6028	0.5547	0.8757	-0.501
Mof_C 	C 	0.8099	0.4448	0.024	0.365
Mof_C 	C 	0.685	0.5536	0.8832	0.296
Mof_N 	N 	0.908	0.5353	0.9787	-0.205
Mof_H 	H 	0.9328	0.5205	0.9997	0.12
Mof_H 	H 	0.9376	0.5614	0.9642	0.106
Mof_C 	C 	0.7744	0.4775	0.9895	-0.077
Mof_C 	C 	0.8274	0.5184	0.969	0.094
Mof_C 	C 	0.7978	0.5416	0.934	-0.061
Mof_H 	H 	0.834	0.5695	0.92	0.05
Mof_C 	C 	0.7152	0.5239	0.9195	0.002
Mof_C 	C 	0.6622	0.483	0.94	-0.047
Mof_H 	H 	0.6057	0.4709	0.9301	0.039
Mof_C 	C 	0.6918	0.4598	0.975	0.046
Mof_N 	N 	0.9315	0.5032	0.9667	-0.178
Mof_H 	H 	0.9641	0.5227	0.9495	0.093
Mof_H 	H 	0.9571	0.4872	0.9872	0.089
Mof_C 	C 	0.781	0.472	0.9874	-0.073
Mof_C 	C 	0.8412	0.4978	0.9616	0.066
Mof_C 	C 	0.8103	0.5253	0.9281	-0.05
Mof_H 	H 	0.8515	0.5429	0.9105	0.051
Mof_C 	C 	0.7192	0.527	0.9203	-0.006
Mof_C 	C 	0.659	0.5012	0.9461	-0.054
Mof_H 	H 	0.5967	0.5024	0.9408	0.048
Mof_C 	C 	0.6899	0.4737	0.9796	0.079
Mof_N 	N 	0.619	0.448	0.9984	-0.079
Mof_H 	H 	0.5651	0.4514	0.9887	0.041
Mof_H 	H 	0.6276	0.4292	0.0204	0.069
Mof_N 	N 	0.629	0.4231	0.993	-0.215
Mof_H 	H 	0.5773	0.4166	0.9816	0.105
Mof_H 	H 	0.6415	0.4061	0.015	0.101
Mof_O 	O 	0.8903	0.9473	0.5333	-0.56
Mof_O 	O 	0.7563	0.915	0.5452	-0.518
Mof_O 	O 	0.7395	0.0807	0.3615	-0.501
Mof_O 	O 	0.6028	0.0547	0.3757	-0.501
Mof_C 	C 	0.8099	0.9448	0.524	0.365
Mof_C 	C 	0.685	0.0536	0.3832	0.296
Mof_N 	N 	0.908	0.0353	0.4787	-0.206
Mof_H 	H 	0.9328	0.0205	0.4997	0.12
Mof_H 	H 	0.9376	0.0614	0.4642	0.106
Mof_C 	C 	0.7744	0.9775	0.4895	-0.076
Mof_C 	C 	0.8274	0.0184	0.469	0.098
Mof_C 	C 	0.7978	0.0416	0.434	-0.06
Mof_H 	H 	0.834	0.0695	0.42	0.05
Mof_C 	C 	0.7152	0.0239	0.4195	0.002
Mof_C 	C 	0.6622	0.983	0.44	-0.048
Mof_H 	H 	0.6057	0.9709	0.4301	0.04
Mof_C 	C 	0.6918	0.9598	0.475	0.045
Mof_N 	N 	0.9315	0.0032	0.4667	-0.178
Mof_H 	H 	0.9641	0.0227	0.4495	0.093
Mof_H 	H 	0.9571	0.9872	0.4872	0.09
Mof_C 	C 	0.781	0.972	0.4874	-0.073
Mof_C 	C 	0.8412	0.9978	0.4616	0.063
Mof_C 	C 	0.8103	0.0253	0.4281	-0.051
Mof_H 	H 	0.8515	0.0429	0.4105	0.051
Mof_C 	C 	0.7192	0.027	0.4203	-0.006
Mof_C 	C 	0.659	0.0012	0.4461	-0.053
Mof_H 	H 	0.5967	0.0024	0.4408	0.048
Mof_C 	C 	0.6899	0.9737	0.4796	0.079
Mof_N 	N 	0.619	0.948	0.4984	-0.078
Mof_H 	H 	0.5651	0.9514	0.4887	0.041
Mof_H 	H 	0.6276	0.9292	0.5204	0.069
Mof_N 	N 	0.629	0.9231	0.493	-0.215
Mof_H 	H 	0.5773	0.9166	0.4816	0.105
Mof_H 	H 	0.6415	0.9061	0.515	0.101
Mof_O 	O 	0.3903	0.4473	0.5333	-0.56
Mof_O 	O 	0.2563	0.415	0.5452	-0.518
Mof_O 	O 	0.2395	0.5807	0.3615	-0.501
Mof_O 	O 	0.1028	0.5547	0.3757	-0.501
Mof_C 	C 	0.3099	0.4448	0.524	0.365
Mof_C 	C 	0.185	0.5536	0.3832	0.296
Mof_N 	N 	0.408	0.5353	0.4787	-0.205
Mof_H 	H 	0.4328	0.5205	0.4997	0.12
Mof_H 	H 	0.4376	0.5614	0.4642	0.106
Mof_C 	C 	0.2744	0.4775	0.4895	-0.076
Mof_C 	C 	0.3274	0.5184	0.469	0.094
Mof_C 	C 	0.2978	0.5416	0.434	-0.061
Mof_H 	H 	0.334	0.5695	0.42	0.05
Mof_C 	C 	0.2152	0.5239	0.4195	0.002
Mof_C 	C 	0.1622	0.483	0.44	-0.047
Mof_H 	H 	0.1057	0.4709	0.4301	0.039
Mof_C 	C 	0.1918	0.4598	0.475	0.046
Mof_N 	N 	0.4315	0.5032	0.4667	-0.178
Mof_H 	H 	0.4641	0.5227	0.4495	0.093
Mof_H 	H 	0.4571	0.4872	0.4872	0.089
Mof_C 	C 	0.281	0.472	0.4874	-0.073
Mof_C 	C 	0.3412	0.4978	0.4616	0.066
Mof_C 	C 	0.3103	0.5253	0.4281	-0.05
Mof_H 	H 	0.3515	0.5429	0.4105	0.051
Mof_C 	C 	0.2192	0.527	0.4203	-0.006
Mof_C 	C 	0.159	0.5012	0.4461	-0.054
Mof_H 	H 	0.0967	0.5024	0.4408	0.048
Mof_C 	C 	0.1899	0.4737	0.4796	0.079
Mof_N 	N 	0.119	0.448	0.4984	-0.079
Mof_H 	H 	0.0651	0.4514	0.4887	0.041
Mof_H 	H 	0.1276	0.4292	0.5204	0.069
Mof_N 	N 	0.129	0.4231	0.493	-0.215
Mof_H 	H 	0.0773	0.4166	0.4816	0.105
Mof_H 	H 	0.1415	0.4061	0.515	0.101
Mof_O 	O 	0.3903	0.9473	0.0333	-0.56
Mof_O 	O 	0.2563	0.915	0.0452	-0.518
Mof_O 	O 	0.2395	0.0807	0.8615	-0.501
Mof_O 	O 	0.1028	0.0547	0.8757	-0.501
Mof_C 	C 	0.3099	0.9448	0.024	0.365
Mof_C 	C 	0.185	0.0536	0.8832	0.296
Mof_N 	N 	0.408	0.0353	0.9787	-0.205
Mof_H 	H 	0.4328	0.0205	0.9997	0.12
Mof_H 	H 	0.4376	0.0614	0.9642	0.106
Mof_C 	C 	0.2744	0.9775	0.9895	-0.077
Mof_C 	C 	0.3274	0.0184	0.969	0.093
Mof_C 	C 	0.2978	0.0416	0.934	-0.061
Mof_H 	H 	0.334	0.0695	0.92	0.05
Mof_C 	C 	0.2152	0.0239	0.9195	0.002
Mof_C 	C 	0.1622	0.983	0.94	-0.046
Mof_H 	H 	0.1057	0.9709	0.9301	0.039
Mof_C 	C 	0.1918	0.9598	0.975	0.046
Mof_N 	N 	0.4315	0.0032	0.9667	-0.179
Mof_H 	H 	0.4641	0.0227	0.9495	0.093
Mof_H 	H 	0.4571	0.9872	0.9872	0.089
Mof_C 	C 	0.281	0.972	0.9874	-0.073
Mof_C 	C 	0.3412	0.9978	0.9616	0.067
Mof_C 	C 	0.3103	0.0253	0.9281	-0.049
Mof_H 	H 	0.3515	0.0429	0.9105	0.05
Mof_C 	C 	0.2192	0.027	0.9203	-0.005
Mof_C 	C 	0.159	0.0012	0.9461	-0.055
Mof_H 	H 	0.0967	0.0024	0.9408	0.049
Mof_C 	C 	0.1899	0.9737	0.9796	0.079
Mof_N 	N 	0.119	0.948	0.9984	-0.079
Mof_H 	H 	0.0651	0.9514	0.9887	0.041
Mof_H 	H 	0.1276	0.9292	0.0204	0.069
Mof_N 	N 	0.129	0.9231	0.993	-0.215
Mof_H 	H 	0.0773	0.9166	0.9816	0.105
Mof_H 	H 	0.1415	0.9061	0.015	0.1
Mof_O 	O 	0.1097	0.6973	0.2833	-0.56
Mof_O 	O 	0.2437	0.665	0.2952	-0.518
Mof_O 	O 	0.2605	0.8307	0.1115	-0.501
Mof_O 	O 	0.3972	0.8047	0.1257	-0.501
Mof_C 	C 	0.1901	0.6948	0.274	0.365
Mof_C 	C 	0.315	0.8036	0.1332	0.296
Mof_N 	N 	0.092	0.7853	0.2287	-0.205
Mof_H 	H 	0.0672	0.7705	0.2497	0.12
Mof_H 	H 	0.0624	0.8114	0.2142	0.106
Mof_C 	C 	0.2256	0.7275	0.2395	-0.076
Mof_C 	C 	0.1726	0.7684	0.219	0.094
Mof_C 	C 	0.2022	0.7916	0.184	-0.061
Mof_H 	H 	0.166	0.8195	0.17	0.05
Mof_C 	C 	0.2848	0.7739	0.1695	0.002
Mof_C 	C 	0.3378	0.733	0.19	-0.047
Mof_H 	H 	0.3943	0.7209	0.1801	0.039
Mof_C 	C 	0.3082	0.7098	0.225	0.046
Mof_N 	N 	0.0685	0.7532	0.2167	-0.178
Mof_H 	H 	0.0359	0.7727	0.1995	0.093
Mof_H 	H 	0.0429	0.7372	0.2372	0.089
Mof_C 	C 	0.219	0.722	0.2374	-0.073
Mof_C 	C 	0.1588	0.7478	0.2116	0.066
Mof_C 	C 	0.1897	0.7753	0.1781	-0.05
Mof_H 	H 	0.1485	0.7929	0.1605	0.05
Mof_C 	C 	0.2808	0.777	0.1703	-0.006
Mof_C 	C 	0.341	0.7512	0.1961	-0.054
Mof_H 	H 	0.4033	0.7524	0.1908	0.048
Mof_C 	C 	0.3101	0.7237	0.2296	0.079
Mof_N 	N 	0.381	0.698	0.2484	-0.079
Mof_H 	H 	0.4349	0.7014	0.2387	0.041
Mof_H 	H 	0.3724	0.6792	0.2704	0.069
Mof_N 	N 	0.371	0.6731	0.243	-0.215
Mof_H 	H 	0.4227	0.6666	0.2316	0.105
Mof_H 	H 	0.3585	0.6561	0.265	0.101
Mof_O 	O 	0.1097	0.1973	0.7833	-0.56
Mof_O 	O 	0.2437	0.165	0.7952	-0.518
Mof_O 	O 	0.2605	0.3307	0.6115	-0.501
Mof_O 	O 	0.3972	0.3047	0.6257	-0.501
Mof_C 	C 	0.1901	0.1948	0.774	0.365
Mof_C 	C 	0.315	0.3036	0.6332	0.296
Mof_N 	N 	0.092	0.2853	0.7287	-0.205
Mof_H 	H 	0.0672	0.2705	0.7497	0.12
Mof_H 	H 	0.0624	0.3114	0.7142	0.106
Mof_C 	C 	0.2256	0.2275	0.7395	-0.076
Mof_C 	C 	0.1726	0.2684	0.719	0.095
Mof_C 	C 	0.2022	0.2916	0.684	-0.061
Mof_H 	H 	0.166	0.3195	0.67	0.05
Mof_C 	C 	0.2848	0.2739	0.6695	0.002
Mof_C 	C 	0.3378	0.233	0.69	-0.047
Mof_H 	H 	0.3943	0.2209	0.6801	0.039
Mof_C 	C 	0.3082	0.2098	0.725	0.046
Mof_N 	N 	0.0685	0.2532	0.7167	-0.178
Mof_H 	H 	0.0359	0.2727	0.6995	0.093
Mof_H 	H 	0.0429	0.2372	0.7372	0.089
Mof_C 	C 	0.219	0.222	0.7374	-0.073
Mof_C 	C 	0.1588	0.2478	0.7116	0.066
Mof_C 	C 	0.1897	0.2753	0.6781	-0.05
Mof_H 	H 	0.1485	0.2929	0.6605	0.051
Mof_C 	C 	0.2808	0.277	0.6703	-0.006
Mof_C 	C 	0.341	0.2512	0.6961	-0.054
Mof_H 	H 	0.4033	0.2524	0.6908	0.048
Mof_C 	C 	0.3101	0.2237	0.7296	0.079
Mof_N 	N 	0.381	0.198	0.7484	-0.079
Mof_H 	H 	0.4349	0.2014	0.7387	0.041
Mof_H 	H 	0.3724	0.1792	0.7704	0.069
Mof_N 	N 	0.371	0.1731	0.743	-0.215
Mof_H 	H 	0.4227	0.1666	0.7316	0.105
Mof_H 	H 	0.3585	0.1561	0.765	0.101
Mof_O 	O 	0.6097	0.6973	0.7833	-0.56
Mof_O 	O 	0.7437	0.665	0.7952	-0.518
Mof_O 	O 	0.7605	0.8307	0.6115	-0.501
Mof_O 	O 	0.8972	0.8047	0.6257	-0.501
Mof_C 	C 	0.6901	0.6948	0.774	0.365
Mof_C 	C 	0.815	0.8036	0.6332	0.296
Mof_N 	N 	0.592	0.7853	0.7287	-0.205
Mof_H 	H 	0.5672	0.7705	0.7497	0.12
Mof_H 	H 	0.5624	0.8114	0.7142	0.106
Mof_C 	C 	0.7256	0.7275	0.7395	-0.076
Mof_C 	C 	0.6726	0.7684	0.719	0.094
Mof_C 	C 	0.7022	0.7916	0.684	-0.061
Mof_H 	H 	0.666	0.8195	0.67	0.05
Mof_C 	C 	0.7848	0.7739	0.6695	0.002
Mof_C 	C 	0.8378	0.733	0.69	-0.047
Mof_H 	H 	0.8943	0.7209	0.6801	0.039
Mof_C 	C 	0.8082	0.7098	0.725	0.046
Mof_N 	N 	0.5685	0.7532	0.7167	-0.178
Mof_H 	H 	0.5359	0.7727	0.6995	0.093
Mof_H 	H 	0.5429	0.7372	0.7372	0.089
Mof_C 	C 	0.719	0.722	0.7374	-0.073
Mof_C 	C 	0.6588	0.7478	0.7116	0.066
Mof_C 	C 	0.6897	0.7753	0.6781	-0.05
Mof_H 	H 	0.6485	0.7929	0.6605	0.051
Mof_C 	C 	0.7808	0.777	0.6703	-0.006
Mof_C 	C 	0.841	0.7512	0.6961	-0.054
Mof_H 	H 	0.9033	0.7524	0.6908	0.048
Mof_C 	C 	0.8101	0.7237	0.7296	0.079
Mof_N 	N 	0.881	0.698	0.7484	-0.079
Mof_H 	H 	0.9349	0.7014	0.7387	0.041
Mof_H 	H 	0.8724	0.6792	0.7704	0.069
Mof_N 	N 	0.871	0.6731	0.743	-0.215
Mof_H 	H 	0.9227	0.6666	0.7316	0.105
Mof_H 	H 	0.8585	0.6561	0.765	0.101
Mof_O 	O 	0.6097	0.1973	0.2833	-0.56
Mof_O 	O 	0.7437	0.165	0.2952	-0.518
Mof_O 	O 	0.7605	0.3307	0.1115	-0.501
Mof_O 	O 	0.8972	0.3047	0.1257	-0.501
Mof_C 	C 	0.6901	0.1948	0.274	0.365
Mof_C 	C 	0.815	0.3036	0.1332	0.296
Mof_N 	N 	0.592	0.2853	0.2287	-0.205
Mof_H 	H 	0.5672	0.2705	0.2497	0.12
Mof_H 	H 	0.5624	0.3114	0.2142	0.106
Mof_C 	C 	0.7256	0.2275	0.2395	-0.076
Mof_C 	C 	0.6726	0.2684	0.219	0.094
Mof_C 	C 	0.7022	0.2916	0.184	-0.061
Mof_H 	H 	0.666	0.3195	0.17	0.05
Mof_C 	C 	0.7848	0.2739	0.1695	0.002
Mof_C 	C 	0.8378	0.233	0.19	-0.047
Mof_H 	H 	0.8943	0.2209	0.1801	0.039
Mof_C 	C 	0.8082	0.2098	0.225	0.046
Mof_N 	N 	0.5685	0.2532	0.2167	-0.178
Mof_H 	H 	0.5359	0.2727	0.1995	0.093
Mof_H 	H 	0.5429	0.2372	0.2372	0.089
Mof_C 	C 	0.719	0.222	0.2374	-0.073
Mof_C 	C 	0.6588	0.2478	0.2116	0.066
Mof_C 	C 	0.6897	0.2753	0.1781	-0.05
Mof_H 	H 	0.6485	0.2929	0.1605	0.051
Mof_C 	C 	0.7808	0.277	0.1703	-0.006
Mof_C 	C 	0.841	0.2512	0.1961	-0.054
Mof_H 	H 	0.9033	0.2524	0.1908	0.048
Mof_C 	C 	0.8101	0.2237	0.2296	0.079
Mof_N 	N 	0.881	0.198	0.2484	-0.079
Mof_H 	H 	0.9349	0.2014	0.2387	0.041
Mof_H 	H 	0.8724	0.1792	0.2704	0.069
Mof_N 	N 	0.871	0.1731	0.243	-0.215
Mof_H 	H 	0.9227	0.1666	0.2316	0.105
Mof_H 	H 	0.8585	0.1561	0.265	0.101
Mof_O 	O 	0.1403	0.5527	0.2833	-0.56
Mof_O 	O 	0.0063	0.585	0.2952	-0.518
Mof_O 	O 	0.9895	0.4193	0.1115	-0.501
Mof_O 	O 	0.8528	0.4453	0.1257	-0.501
Mof_C 	C 	0.0599	0.5552	0.274	0.365
Mof_C 	C 	0.935	0.4464	0.1332	0.296
Mof_N 	N 	0.158	0.4647	0.2287	-0.205
Mof_H 	H 	0.1828	0.4795	0.2497	0.12
Mof_H 	H 	0.1876	0.4386	0.2142	0.106
Mof_C 	C 	0.0244	0.5225	0.2395	-0.077
Mof_C 	C 	0.0774	0.4816	0.219	0.094
Mof_C 	C 	0.0478	0.4584	0.184	-0.061
Mof_H 	H 	0.084	0.4305	0.17	0.05
Mof_C 	C 	0.9652	0.4761	0.1695	0.002
Mof_C 	C 	0.9122	0.517	0.19	-0.047
Mof_H 	H 	0.8557	0.5291	0.1801	0.039
Mof_C 	C 	0.9418	0.5402	0.225	0.046
Mof_N 	N 	0.1815	0.4968	0.2167	-0.178
Mof_H 	H 	0.2141	0.4773	0.1995	0.093
Mof_H 	H 	0.2071	0.5128	0.2372	0.089
Mof_C 	C 	0.031	0.528	0.2374	-0.073
Mof_C 	C 	0.0912	0.5022	0.2116	0.066
Mof_C 	C 	0.0603	0.4747	0.1781	-0.05
Mof_H 	H 	0.1015	0.4571	0.1605	0.051
Mof_C 	C 	0.9692	0.473	0.1703	-0.006
Mof_C 	C 	0.909	0.4988	0.1961	-0.054
Mof_H 	H 	0.8467	0.4976	0.1908	0.048
Mof_C 	C 	0.9399	0.5263	0.2296	0.079
Mof_N 	N 	0.869	0.552	0.2484	-0.079
Mof_H 	H 	0.8151	0.5486	0.2387	0.041
Mof_H 	H 	0.8776	0.5708	0.2704	0.069
Mof_N 	N 	0.879	0.5769	0.243	-0.215
Mof_H 	H 	0.8273	0.5834	0.2316	0.105
Mof_H 	H 	0.8915	0.5939	0.265	0.101
Mof_O 	O 	0.1403	0.0527	0.7833	-0.56
Mof_O 	O 	0.0063	0.085	0.7952	-0.518
Mof_O 	O 	0.9895	0.9193	0.6115	-0.501
Mof_O 	O 	0.8528	0.9453	0.6257	-0.501
Mof_C 	C 	0.0599	0.0552	0.774	0.365
Mof_C 	C 	0.935	0.9464	0.6332	0.296
Mof_N 	N 	0.158	0.9647	0.7287	-0.206
Mof_H 	H 	0.1828	0.9795	0.7497	0.12
Mof_H 	H 	0.1876	0.9386	0.7142	0.106
Mof_C 	C 	0.0244	0.0225	0.7395	-0.076
Mof_C 	C 	0.0774	0.9816	0.719	0.099
Mof_C 	C 	0.0478	0.9584	0.684	-0.06
Mof_H 	H 	0.084	0.9305	0.67	0.049
Mof_C 	C 	0.9652	0.9761	0.6695	0.002
Mof_C 	C 	0.9122	0.017	0.69	-0.046
Mof_H 	H 	0.8557	0.0291	0.6801	0.039
Mof_C 	C 	0.9418	0.0402	0.725	0.045
Mof_N 	N 	0.1815	0.9968	0.7167	-0.178
Mof_H 	H 	0.2141	0.9773	0.6995	0.093
Mof_H 	H 	0.2071	0.0128	0.7372	0.089
Mof_C 	C 	0.031	0.028	0.7374	-0.073
Mof_C 	C 	0.0912	0.0022	0.7116	0.062
Mof_C 	C 	0.0603	0.9747	0.6781	-0.051
Mof_H 	H 	0.1015	0.9571	0.6605	0.051
Mof_C 	C 	0.9692	0.973	0.6703	-0.005
Mof_C 	C 	0.909	0.9988	0.6961	-0.055
Mof_H 	H 	0.8467	0.9976	0.6908	0.049
Mof_C 	C 	0.9399	0.0263	0.7296	0.079
Mof_N 	N 	0.869	0.052	0.7484	-0.079
Mof_H 	H 	0.8151	0.0486	0.7387	0.041
Mof_H 	H 	0.8776	0.0708	0.7704	0.069
Mof_N 	N 	0.879	0.0769	0.743	-0.215
Mof_H 	H 	0.8273	0.0834	0.7316	0.105
Mof_H 	H 	0.8915	0.0939	0.765	0.101
Mof_O 	O 	0.6403	0.5527	0.7833	-0.56
Mof_O 	O 	0.5063	0.585	0.7952	-0.518
Mof_O 	O 	0.4895	0.4193	0.6115	-0.501
Mof_O 	O 	0.3528	0.4453	0.6257	-0.501
Mof_C 	C 	0.5599	0.5552	0.774	0.365
Mof_C 	C 	0.435	0.4464	0.6332	0.296
Mof_N 	N 	0.658	0.4647	0.7287	-0.205
Mof_H 	H 	0.6828	0.4795	0.7497	0.12
Mof_H 	H 	0.6876	0.4386	0.7142	0.106
Mof_C 	C 	0.5244	0.5225	0.7395	-0.076
Mof_C 	C 	0.5774	0.4816	0.719	0.094
Mof_C 	C 	0.5478	0.4584	0.684	-0.061
Mof_H 	H 	0.584	0.4305	0.67	0.05
Mof_C 	C 	0.4652	0.4761	0.6695	0.002
Mof_C 	C 	0.4122	0.517	0.69	-0.047
Mof_H 	H 	0.3557	0.5291	0.6801	0.039
Mof_C 	C 	0.4418	0.5402	0.725	0.046
Mof_N 	N 	0.6815	0.4968	0.7167	-0.178
Mof_H 	H 	0.7141	0.4773	0.6995	0.093
Mof_H 	H 	0.7071	0.5128	0.7372	0.089
Mof_C 	C 	0.531	0.528	0.7374	-0.073
Mof_C 	C 	0.5912	0.5022	0.7116	0.066
Mof_C 	C 	0.5603	0.4747	0.6781	-0.05
Mof_H 	H 	0.6015	0.4571	0.6605	0.051
Mof_C 	C 	0.4692	0.473	0.6703	-0.006
Mof_C 	C 	0.409	0.4988	0.6961	-0.054
Mof_H 	H 	0.3467	0.4976	0.6908	0.048
Mof_C 	C 	0.4399	0.5263	0.7296	0.079
Mof_N 	N 	0.369	0.552	0.7484	-0.079
Mof_H 	H 	0.3151	0.5486	0.7387	0.041
Mof_H 	H 	0.3776	0.5708	0.7704	0.069
Mof_N 	N 	0.379	0.5769	0.743	-0.215
Mof_H 	H 	0.3273	0.5834	0.7316	0.105
Mof_H 	H 	0.3915	0.5939	0.765	0.101
Mof_O 	O 	0.6403	0.0527	0.2833	-0.56
Mof_O 	O 	0.5063	0.085	0.2952	-0.518
Mof_O 	O 	0.4895	0.9193	0.1115	-0.501
Mof_O 	O 	0.3528	0.9453	0.1257	-0.501
Mof_C 	C 	0.5599	0.0552	0.274	0.365
Mof_C 	C 	0.435	0.9464	0.1332	0.296
Mof_N 	N 	0.658	0.9647	0.2287	-0.205
Mof_H 	H 	0.6828	0.9795	0.2497	0.12
Mof_H 	H 	0.6876	0.9386	0.2142	0.106
Mof_C 	C 	0.5244	0.0225	0.2395	-0.076
Mof_C 	C 	0.5774	0.9816	0.219	0.093
Mof_C 	C 	0.5478	0.9584	0.184	-0.061
Mof_H 	H 	0.584	0.9305	0.17	0.05
Mof_C 	C 	0.4652	0.9761	0.1695	0.002
Mof_C 	C 	0.4122	0.017	0.19	-0.047
Mof_H 	H 	0.3557	0.0291	0.1801	0.04
Mof_C 	C 	0.4418	0.0402	0.225	0.046
Mof_N 	N 	0.6815	0.9968	0.2167	-0.178
Mof_H 	H 	0.7141	0.9773	0.1995	0.093
Mof_H 	H 	0.7071	0.0128	0.2372	0.089
Mof_C 	C 	0.531	0.028	0.2374	-0.073
Mof_C 	C 	0.5912	0.0022	0.2116	0.067
Mof_C 	C 	0.5603	0.9747	0.1781	-0.05
Mof_H 	H 	0.6015	0.9571	0.1605	0.05
Mof_C 	C 	0.4692	0.973	0.1703	-0.006
Mof_C 	C 	0.409	0.9988	0.1961	-0.054
Mof_H 	H 	0.3467	0.9976	0.1908	0.048
Mof_C 	C 	0.4399	0.0263	0.2296	0.079
Mof_N 	N 	0.369	0.052	0.2484	-0.079
Mof_H 	H 	0.3151	0.0486	0.2387	0.041
Mof_H 	H 	0.3776	0.0708	0.2704	0.069
Mof_N 	N 	0.379	0.0769	0.243	-0.215
Mof_H 	H 	0.3273	0.0834	0.2316	0.105
Mof_H 	H 	0.3915	0.0939	0.265	0.101
Mof_In	In	0.875	0.375	0.07845	2.533
Mof_In	In	0.875	0.875	0.57845	2.533
Mof_In	In	0.375	0.375	0.57845	2.533
Mof_In	In	0.375	0.875	0.07845	2.533
Mof_In	In	0.125	0.625	0.32845	2.533
Mof_In	In	0.125	0.125	0.82845	2.533
Mof_In	In	0.625	0.625	0.82845	2.533
Mof_In	In	0.625	0.125	0.32845	2.533
Mof_O 	O 	0.8903	0.3027	0.7167	-0.56
Mof_O 	O 	0.7563	0.335	0.7048	-0.518
Mof_O 	O 	0.7395	0.1693	0.8885	-0.501
Mof_O 	O 	0.6028	0.1953	0.8743	-0.501
Mof_C 	C 	0.8099	0.3052	0.726	0.365
Mof_C 	C 	0.685	0.1964	0.8668	0.296
Mof_N 	N 	0.908	0.2147	0.7713	-0.205
Mof_H 	H 	0.9328	0.2295	0.7503	0.12
Mof_H 	H 	0.9376	0.1886	0.7858	0.106
Mof_C 	C 	0.7744	0.2725	0.7605	-0.076
Mof_C 	C 	0.8274	0.2316	0.781	0.094
Mof_C 	C 	0.7978	0.2084	0.816	-0.061
Mof_H 	H 	0.834	0.1805	0.83	0.05
Mof_C 	C 	0.7152	0.2261	0.8305	0.002
Mof_C 	C 	0.6622	0.267	0.81	-0.047
Mof_H 	H 	0.6057	0.2791	0.8199	0.039
Mof_C 	C 	0.6918	0.2902	0.775	0.046
Mof_N 	N 	0.9315	0.2468	0.7833	-0.178
Mof_H 	H 	0.9641	0.2273	0.8005	0.093
Mof_H 	H 	0.9571	0.2628	0.7628	0.089
Mof_C 	C 	0.781	0.278	0.7626	-0.073
Mof_C 	C 	0.8412	0.2522	0.7884	0.066
Mof_C 	C 	0.8103	0.2247	0.8219	-0.05
Mof_H 	H 	0.8515	0.2071	0.8395	0.05
Mof_C 	C 	0.7192	0.223	0.8297	-0.006
Mof_C 	C 	0.659	0.2488	0.8039	-0.054
Mof_H 	H 	0.5967	0.2476	0.8092	0.048
Mof_C 	C 	0.6899	0.2763	0.7704	0.079
Mof_N 	N 	0.619	0.302	0.7516	-0.079
Mof_H 	H 	0.5651	0.2986	0.7613	0.041
Mof_H 	H 	0.6276	0.3208	0.7296	0.069
Mof_N 	N 	0.629	0.3269	0.757	-0.215
Mof_H 	H 	0.5773	0.3334	0.7684	0.105
Mof_H 	H 	0.6415	0.3439	0.735	0.101
Mof_O 	O 	0.8903	0.8027	0.2167	-0.56
Mof_O 	O 	0.7563	0.835	0.2048	-0.518
Mof_O 	O 	0.7395	0.6693	0.3885	-0.501
Mof_O 	O 	0.6028	0.6953	0.3743	-0.501
Mof_C 	C 	0.8099	0.8052	0.226	0.365
Mof_C 	C 	0.685	0.6964	0.3668	0.296
Mof_N 	N 	0.908	0.7147	0.2713	-0.205
Mof_H 	H 	0.9328	0.7295	0.2503	0.12
Mof_H 	H 	0.9376	0.6886	0.2858	0.106
Mof_C 	C 	0.7744	0.7725	0.2605	-0.076
Mof_C 	C 	0.8274	0.7316	0.281	0.095
Mof_C 	C 	0.7978	0.7084	0.316	-0.061
Mof_H 	H 	0.834	0.6805	0.33	0.05
Mof_C 	C 	0.7152	0.7261	0.3305	0.002
Mof_C 	C 	0.6622	0.767	0.31	-0.047
Mof_H 	H 	0.6057	0.7791	0.3199	0.039
Mof_C 	C 	0.6918	0.7902	0.275	0.046
Mof_N 	N 	0.9315	0.7468	0.2833	-0.178
Mof_H 	H 	0.9641	0.7273	0.3005	0.093
Mof_H 	H 	0.9571	0.7628	0.2628	0.089
Mof_C 	C 	0.781	0.778	0.2626	-0.073
Mof_C 	C 	0.8412	0.7522	0.2884	0.066
Mof_C 	C 	0.8103	0.7247	0.3219	-0.05
Mof_H 	H 	0.8515	0.7071	0.3395	0.051
Mof_C 	C 	0.7192	0.723	0.3297	-0.006
Mof_C 	C 	0.659	0.7488	0.3039	-0.054
Mof_H 	H 	0.5967	0.7476	0.3092	0.048
Mof_C 	C 	0.6899	0.7763	0.2704	0.079
Mof_N 	N 	0.619	0.802	0.2516	-0.079
Mof_H 	H 	0.5651	0.7986	0.2613	0.041
Mof_H 	H 	0.6276	0.8208	0.2296	0.069
Mof_N 	N 	0.629	0.8269	0.257	-0.215
Mof_H 	H 	0.5773	0.8334	0.2684	0.105
Mof_H 	H 	0.6415	0.8439	0.235	0.101
Mof_O 	O 	0.3903	0.3027	0.2167	-0.56
Mof_O 	O 	0.2563	0.335	0.2048	-0.518
Mof_O 	O 	0.2395	0.1693	0.3885	-0.501
Mof_O 	O 	0.1028	0.1953	0.3743	-0.501
Mof_C 	C 	0.3099	0.3052	0.226	0.365
Mof_C 	C 	0.185	0.1964	0.3668	0.296
Mof_N 	N 	0.408	0.2147	0.2713	-0.205
Mof_H 	H 	0.4328	0.2295	0.2503	0.12
Mof_H 	H 	0.4376	0.1886	0.2858	0.106
Mof_C 	C 	0.2744	0.2725	0.2605	-0.076
Mof_C 	C 	0.3274	0.2316	0.281	0.094
Mof_C 	C 	0.2978	0.2084	0.316	-0.061
Mof_H 	H 	0.334	0.1805	0.33	0.05
Mof_C 	C 	0.2152	0.2261	0.3305	0.002
Mof_C 	C 	0.1622	0.267	0.31	-0.047
Mof_H 	H 	0.1057	0.2791	0.3199	0.039
Mof_C 	C 	0.1918	0.2902	0.275	0.046
Mof_N 	N 	0.4315	0.2468	0.2833	-0.178
Mof_H 	H 	0.4641	0.2273	0.3005	0.093
Mof_H 	H 	0.4571	0.2628	0.2628	0.089
Mof_C 	C 	0.281	0.278	0.2626	-0.073
Mof_C 	C 	0.3412	0.2522	0.2884	0.066
Mof_C 	C 	0.3103	0.2247	0.3219	-0.05
Mof_H 	H 	0.3515	0.2071	0.3395	0.051
Mof_C 	C 	0.2192	0.223	0.3297	-0.006
Mof_C 	C 	0.159	0.2488	0.3039	-0.054
Mof_H 	H 	0.0967	0.2476	0.3092	0.048
Mof_C 	C 	0.1899	0.2763	0.2704	0.079
Mof_N 	N 	0.119	0.302	0.2516	-0.079
Mof_H 	H 	0.0651	0.2986	0.2613	0.041
Mof_H 	H 	0.1276	0.3208	0.2296	0.069
Mof_N 	N 	0.129	0.3269	0.257	-0.215
Mof_H 	H 	0.0773	0.3334	0.2684	0.105
Mof_H 	H 	0.1415	0.3439	0.235	0.101
Mof_O 	O 	0.3903	0.8027	0.7167	-0.56
Mof_O 	O 	0.2563	0.835	0.7048	-0.518
Mof_O 	O 	0.2395	0.6693	0.8885	-0.501
Mof_O 	O 	0.1028	0.6953	0.8743	-0.501
Mof_C 	C 	0.3099	0.8052	0.726	0.365
Mof_C 	C 	0.185	0.6964	0.8668	0.296
Mof_N 	N 	0.408	0.7147	0.7713	-0.205
Mof_H 	H 	0.4328	0.7295	0.7503	0.12
Mof_H 	H 	0.4376	0.6886	0.7858	0.106
Mof_C 	C 	0.2744	0.7725	0.7605	-0.076
Mof_C 	C 	0.3274	0.7316	0.781	0.094
Mof_C 	C 	0.2978	0.7084	0.816	-0.061
Mof_H 	H 	0.334	0.6805	0.83	0.05
Mof_C 	C 	0.2152	0.7261	0.8305	0.002
Mof_C 	C 	0.1622	0.767	0.81	-0.047
Mof_H 	H 	0.1057	0.7791	0.8199	0.039
Mof_C 	C 	0.1918	0.7902	0.775	0.046
Mof_N 	N 	0.4315	0.7468	0.7833	-0.178
Mof_H 	H 	0.4641	0.7273	0.8005	0.093
Mof_H 	H 	0.4571	0.7628	0.7628	0.089
Mof_C 	C 	0.281	0.778	0.7626	-0.073
Mof_C 	C 	0.3412	0.7522	0.7884	0.066
Mof_C 	C 	0.3103	0.7247	0.8219	-0.05
Mof_H 	H 	0.3515	0.7071	0.8395	0.051
Mof_C 	C 	0.2192	0.723	0.8297	-0.006
Mof_C 	C 	0.159	0.7488	0.8039	-0.054
Mof_H 	H 	0.0967	0.7476	0.8092	0.048
Mof_C 	C 	0.1899	0.7763	0.7704	0.079
Mof_N 	N 	0.119	0.802	0.7516	-0.079
Mof_H 	H 	0.0651	0.7986	0.7613	0.041
Mof_H 	H 	0.1276	0.8208	0.7296	0.069
Mof_N 	N 	0.129	0.8269	0.757	-0.215
Mof_H 	H 	0.0773	0.8334	0.7684	0.105
Mof_H 	H 	0.1415	0.8439	0.735	0.101
Mof_O 	O 	0.8597	0.4473	0.7167	-0.56
Mof_O 	O 	0.9937	0.415	0.7048	-0.518
Mof_O 	O 	0.0105	0.5807	0.8885	-0.501
Mof_O 	O 	0.1472	0.5547	0.8743	-0.501
Mof_C 	C 	0.9401	0.4448	0.726	0.365
Mof_C 	C 	0.065	0.5536	0.8668	0.296
Mof_N 	N 	0.842	0.5353	0.7713	-0.205
Mof_H 	H 	0.8172	0.5205	0.7503	0.12
Mof_H 	H 	0.8124	0.5614	0.7858	0.106
Mof_C 	C 	0.9756	0.4775	0.7605	-0.077
Mof_C 	C 	0.9226	0.5184	0.781	0.094
Mof_C 	C 	0.9522	0.5416	0.816	-0.061
Mof_H 	H 	0.916	0.5695	0.83	0.05
Mof_C 	C 	0.0348	0.5239	0.8305	0.002
Mof_C 	C 	0.0878	0.483	0.81	-0.047
Mof_H 	H 	0.1443	0.4709	0.8199	0.039
Mof_C 	C 	0.0582	0.4598	0.775	0.046
Mof_N 	N 	0.8185	0.5032	0.7833	-0.178
Mof_H 	H 	0.7859	0.5227	0.8005	0.093
Mof_H 	H 	0.7929	0.4872	0.7628	0.089
Mof_C 	C 	0.969	0.472	0.7626	-0.073
Mof_C 	C 	0.9088	0.4978	0.7884	0.066
Mof_C 	C 	0.9397	0.5253	0.8219	-0.05
Mof_H 	H 	0.8985	0.5429	0.8395	0.051
Mof_C 	C 	0.0308	0.527	0.8297	-0.006
Mof_C 	C 	0.091	0.5012	0.8039	-0.054
Mof_H 	H 	0.1533	0.5024	0.8092	0.048
Mof_C 	C 	0.0601	0.4737	0.7704	0.079
Mof_N 	N 	0.131	0.448	0.7516	-0.079
Mof_H 	H 	0.1849	0.4514	0.7613	0.041
Mof_H 	H 	0.1224	0.4292	0.7296	0.069
Mof_N 	N 	0.121	0.4231	0.757	-0.215
Mof_H 	H 	0.1727	0.4166	0.7684	0.105
Mof_H 	H 	0.1085	0.4061	0.735	0.101
Mof_O 	O 	0.8597	0.9473	0.2167	-0.56
Mof_O 	O 	0.9937	0.915	0.2048	-0.518
Mof_O 	O 	0.0105	0.0807	0.3885	-0.501
Mof_O 	O 	0.1472	0.0547	0.3743	-0.501
Mof_C 	C 	0.9401	0.9448	0.226	0.365
Mof_C 	C 	0.065	0.0536	0.3668	0.296
Mof_N 	N 	0.842	0.0353	0.2713	-0.206
Mof_H 	H 	0.8172	0.0205	0.2503	0.12
Mof_H 	H 	0.8124	0.0614	0.2858	0.106
Mof_C 	C 	0.9756	0.9775	0.2605	-0.076
Mof_C 	C 	0.9226	0.0184	0.281	0.099
Mof_C 	C 	0.9522	0.0416	0.316	-0.06
Mof_H 	H 	0.916	0.0695	0.33	0.049
Mof_C 	C 	0.0348	0.0239	0.3305	0.002
Mof_C 	C 	0.0878	0.983	0.31	-0.046
Mof_H 	H 	0.1443	0.9709	0.3199	0.039
Mof_C 	C 	0.0582	0.9598	0.275	0.045
Mof_N 	N 	0.8185	0.0032	0.2833	-0.178
Mof_H 	H 	0.7859	0.0227	0.3005	0.093
Mof_H 	H 	0.7929	0.9872	0.2628	0.089
Mof_C 	C 	0.969	0.972	0.2626	-0.073
Mof_C 	C 	0.9088	0.9978	0.2884	0.062
Mof_C 	C 	0.9397	0.0253	0.3219	-0.051
Mof_H 	H 	0.8985	0.0429	0.3395	0.051
Mof_C 	C 	0.0308	0.027	0.3297	-0.005
Mof_C 	C 	0.091	0.0012	0.3039	-0.055
Mof_H 	H 	0.1533	0.0024	0.3092	0.049
Mof_C 	C 	0.0601	0.9737	0.2704	0.079
Mof_N 	N 	0.131	0.948	0.2516	-0.079
Mof_H 	H 	0.1849	0.9514	0.2613	0.041
Mof_H 	H 	0.1224	0.9292	0.2296	0.069
Mof_N 	N 	0.121	0.9231	0.257	-0.215
Mof_H 	H 	0.1727	0.9166	0.2684	0.105
Mof_H 	H 	0.1085	0.9061	0.235	0.101
Mof_O 	O 	0.3597	0.4473	0.2167	-0.56
Mof_O 	O 	0.4937	0.415	0.2048	-0.518
Mof_O 	O 	0.5105	0.5807	0.3885	-0.501
Mof_O 	O 	0.6472	0.5547	0.3743	-0.501
Mof_C 	C 	0.4401	0.4448	0.226	0.365
Mof_C 	C 	0.565	0.5536	0.3668	0.296
Mof_N 	N 	0.342	0.5353	0.2713	-0.205
Mof_H 	H 	0.3172	0.5205	0.2503	0.12
Mof_H 	H 	0.3124	0.5614	0.2858	0.106
Mof_C 	C 	0.4756	0.4775	0.2605	-0.076
Mof_C 	C 	0.4226	0.5184	0.281	0.094
Mof_C 	C 	0.4522	0.5416	0.316	-0.061
Mof_H 	H 	0.416	0.5695	0.33	0.05
Mof_C 	C 	0.5348	0.5239	0.3305	0.002
Mof_C 	C 	0.5878	0.483	0.31	-0.047
Mof_H 	H 	0.6443	0.4709	0.3199	0.039
Mof_C 	C 	0.5582	0.4598	0.275	0.046
Mof_N 	N 	0.3185	0.5032	0.2833	-0.178
Mof_H 	H 	0.2859	0.5227	0.3005	0.093
Mof_H 	H 	0.2929	0.4872	0.2628	0.089
Mof_C 	C 	0.469	0.472	0.2626	-0.073
Mof_C 	C 	0.4088	0.4978	0.2884	0.066
Mof_C 	C 	0.4397	0.5253	0.3219	-0.05
Mof_H 	H 	0.3985	0.5429	0.3395	0.051
Mof_C 	C 	0.5308	0.527	0.3297	-0.006
Mof_C 	C 	0.591	0.5012	0.3039	-0.054
Mof_H 	H 	0.6533	0.5024	0.3092	0.048
Mof_C 	C 	0.5601	0.4737	0.2704	0.079
Mof_N 	N 	0.631	0.448	0.2516	-0.079
Mof_H 	H 	0.6849	0.4514	0.2613	0.041
Mof_H 	H 	0.6224	0.4292	0.2296	0.069
Mof_N 	N 	0.621	0.4231	0.257	-0.215
Mof_H 	H 	0.6727	0.4166	0.2684	0.105
Mof_H 	H 	0.6085	0.4061	0.235	0.101
Mof_O 	O 	0.3597	0.9473	0.7167	-0.56
Mof_O 	O 	0.4937	0.915	0.7048	-0.518
Mof_O 	O 	0.5105	0.0807	0.8885	-0.501
Mof_O 	O 	0.6472	0.0547	0.8743	-0.501
Mof_C 	C 	0.4401	0.9448	0.726	0.365
Mof_C 	C 	0.565	0.0536	0.8668	0.296
Mof_N 	N 	0.342	0.0353	0.7713	-0.205
Mof_H 	H 	0.3172	0.0205	0.7503	0.12
Mof_H 	H 	0.3124	0.0614	0.7858	0.106
Mof_C 	C 	0.4756	0.9775	0.7605	-0.076
Mof_C 	C 	0.4226	0.0184	0.781	0.093
Mof_C 	C 	0.4522	0.0416	0.816	-0.061
Mof_H 	H 	0.416	0.0695	0.83	0.05
Mof_C 	C 	0.5348	0.0239	0.8305	0.002
Mof_C 	C 	0.5878	0.983	0.81	-0.047
Mof_H 	H 	0.6443	0.9709	0.8199	0.04
Mof_C 	C 	0.5582	0.9598	0.775	0.046
Mof_N 	N 	0.3185	0.0032	0.7833	-0.178
Mof_H 	H 	0.2859	0.0227	0.8005	0.093
Mof_H 	H 	0.2929	0.9872	0.7628	0.089
Mof_C 	C 	0.469	0.972	0.7626	-0.073
Mof_C 	C 	0.4088	0.9978	0.7884	0.067
Mof_C 	C 	0.4397	0.0253	0.8219	-0.05
Mof_H 	H 	0.3985	0.0429	0.8395	0.05
Mof_C 	C 	0.5308	0.027	0.8297	-0.006
Mof_C 	C 	0.591	0.0012	0.8039	-0.054
Mof_H 	H 	0.6533	0.0024	0.8092	0.048
Mof_C 	C 	0.5601	0.9737	0.7704	0.079
Mof_N 	N 	0.631	0.948	0.7516	-0.079
Mof_H 	H 	0.6849	0.9514	0.7613	0.041
Mof_H 	H 	0.6224	0.9292	0.7296	0.069
Mof_N 	N 	0.621	0.9231	0.757	-0.215
Mof_H 	H 	0.6727	0.9166	0.7684	0.105
Mof_H 	H 	0.6085	0.9061	0.735	0.101
Mof_O 	O 	0.1403	0.6973	0.9667	-0.56
Mof_O 	O 	0.0063	0.665	0.9548	-0.518
Mof_O 	O 	0.9895	0.8307	0.1385	-0.501
Mof_O 	O 	0.8528	0.8047	0.1243	-0.501
Mof_C 	C 	0.0599	0.6948	0.976	0.365
Mof_C 	C 	0.935	0.8036	0.1168	0.296
Mof_N 	N 	0.158	0.7853	0.0213	-0.206
Mof_H 	H 	0.1828	0.7705	0.0003	0.12
Mof_H 	H 	0.1876	0.8114	0.0358	0.106
Mof_C 	C 	0.0244	0.7275	0.0105	-0.077
Mof_C 	C 	0.0774	0.7684	0.031	0.095
Mof_C 	C 	0.0478	0.7916	0.066	-0.061
Mof_H 	H 	0.084	0.8195	0.08	0.05
Mof_C 	C 	0.9652	0.7739	0.0805	0.002
Mof_C 	C 	0.9122	0.733	0.06	-0.047
Mof_H 	H 	0.8557	0.7209	0.0699	0.039
Mof_C 	C 	0.9418	0.7098	0.025	0.046
Mof_N 	N 	0.1815	0.7532	0.0333	-0.178
Mof_H 	H 	0.2141	0.7727	0.0505	0.093
Mof_H 	H 	0.2071	0.7372	0.0128	0.089
Mof_C 	C 	0.031	0.722	0.0126	-0.074
Mof_C 	C 	0.0912	0.7478	0.0384	0.066
Mof_C 	C 	0.0603	0.7753	0.0719	-0.05
Mof_H 	H 	0.1015	0.7929	0.0895	0.051
Mof_C 	C 	0.9692	0.777	0.0797	-0.005
Mof_C 	C 	0.909	0.7512	0.0539	-0.054
Mof_H 	H 	0.8467	0.7524	0.0592	0.048
Mof_C 	C 	0.9399	0.7237	0.0204	0.079
Mof_N 	N 	0.869	0.698	0.0016	-0.078
Mof_H 	H 	0.8151	0.7014	0.0113	0.041
Mof_H 	H 	0.8776	0.6792	0.9796	0.069
Mof_N 	N 	0.879	0.6731	0.007	-0.215
Mof_H 	H 	0.8273	0.6666	0.0184	0.105
Mof_H 	H 	0.8915	0.6561	0.985	0.101
Mof_O 	O 	0.1403	0.1973	0.4667	-0.56
Mof_O 	O 	0.0063	0.165	0.4548	-0.518
Mof_O 	O 	0.9895	0.3307	0.6385	-0.501
Mof_O 	O 	0.8528	0.3047	0.6243	-0.501
Mof_C 	C 	0.0599	0.1948	0.476	0.365
Mof_C 	C 	0.935	0.3036	0.6168	0.296
Mof_N 	N 	0.158	0.2853	0.5213	-0.205
Mof_H 	H 	0.1828	0.2705	0.5003	0.12
Mof_H 	H 	0.1876	0.3114	0.5358	0.106
Mof_C 	C 	0.0244	0.2275	0.5105	-0.076
Mof_C 	C 	0.0774	0.2684	0.531	0.095
Mof_C 	C 	0.0478	0.2916	0.566	-0.061
Mof_H 	H 	0.084	0.3195	0.58	0.05
Mof_C 	C 	0.9652	0.2739	0.5805	0.001
Mof_C 	C 	0.9122	0.233	0.56	-0.047
Mof_H 	H 	0.8557	0.2209	0.5699	0.039
Mof_C 	C 	0.9418	0.2098	0.525	0.046
Mof_N 	N 	0.1815	0.2532	0.5333	-0.178
Mof_H 	H 	0.2141	0.2727	0.5505	0.093
Mof_H 	H 	0.2071	0.2372	0.5128	0.089
Mof_C 	C 	0.031	0.222	0.5126	-0.073
Mof_C 	C 	0.0912	0.2478	0.5384	0.066
Mof_C 	C 	0.0603	0.2753	0.5719	-0.05
Mof_H 	H 	0.1015	0.2929	0.5895	0.051
Mof_C 	C 	0.9692	0.277	0.5797	-0.006
Mof_C 	C 	0.909	0.2512	0.5539	-0.054
Mof_H 	H 	0.8467	0.2524	0.5592	0.048
Mof_C 	C 	0.9399	0.2237	0.5204	0.079
Mof_N 	N 	0.869	0.198	0.5016	-0.078
Mof_H 	H 	0.8151	0.2014	0.5113	0.041
Mof_H 	H 	0.8776	0.1792	0.4796	0.069
Mof_N 	N 	0.879	0.1731	0.507	-0.215
Mof_H 	H 	0.8273	0.1666	0.5184	0.105
Mof_H 	H 	0.8915	0.1561	0.485	0.101
Mof_O 	O 	0.6403	0.6973	0.4667	-0.56
Mof_O 	O 	0.5063	0.665	0.4548	-0.518
Mof_O 	O 	0.4895	0.8307	0.6385	-0.501
Mof_O 	O 	0.3528	0.8047	0.6243	-0.501
Mof_C 	C 	0.5599	0.6948	0.476	0.365
Mof_C 	C 	0.435	0.8036	0.6168	0.296
Mof_N 	N 	0.658	0.7853	0.5213	-0.205
Mof_H 	H 	0.6828	0.7705	0.5003	0.12
Mof_H 	H 	0.6876	0.8114	0.5358	0.106
Mof_C 	C 	0.5244	0.7275	0.5105	-0.076
Mof_C 	C 	0.5774	0.7684	0.531	0.094
Mof_C 	C 	0.5478	0.7916	0.566	-0.061
Mof_H 	H 	0.584	0.8195	0.58	0.05
Mof_C 	C 	0.4652	0.7739	0.5805	0.002
Mof_C 	C 	0.4122	0.733	0.56	-0.047
Mof_H 	H 	0.3557	0.7209	0.5699	0.039
Mof_C 	C 	0.4418	0.7098	0.525	0.046
Mof_N 	N 	0.6815	0.7532	0.5333	-0.178
Mof_H 	H 	0.7141	0.7727	0.5505	0.093
Mof_H 	H 	0.7071	0.7372	0.5128	0.089
Mof_C 	C 	0.531	0.722	0.5126	-0.073
Mof_C 	C 	0.5912	0.7478	0.5384	0.066
Mof_C 	C 	0.5603	0.7753	0.5719	-0.05
Mof_H 	H 	0.6015	0.7929	0.5895	0.051
Mof_C 	C 	0.4692	0.777	0.5797	-0.006
Mof_C 	C 	0.409	0.7512	0.5539	-0.054
Mof_H 	H 	0.3467	0.7524	0.5592	0.048
Mof_C 	C 	0.4399	0.7237	0.5204	0.079
Mof_N 	N 	0.369	0.698	0.5016	-0.079
Mof_H 	H 	0.3151	0.7014	0.5113	0.041
Mof_H 	H 	0.3776	0.6792	0.4796	0.069
Mof_N 	N 	0.379	0.6731	0.507	-0.215
Mof_H 	H 	0.3273	0.6666	0.5184	0.105
Mof_H 	H 	0.3915	0.6561	0.485	0.101
Mof_O 	O 	0.6403	0.1973	0.9667	-0.56
Mof_O 	O 	0.5063	0.165	0.9548	-0.518
Mof_O 	O 	0.4895	0.3307	0.1385	-0.501
Mof_O 	O 	0.3528	0.3047	0.1243	-0.501
Mof_C 	C 	0.5599	0.1948	0.976	0.365
Mof_C 	C 	0.435	0.3036	0.1168	0.296
Mof_N 	N 	0.658	0.2853	0.0213	-0.205
Mof_H 	H 	0.6828	0.2705	0.0003	0.12
Mof_H 	H 	0.6876	0.3114	0.0358	0.106
Mof_C 	C 	0.5244	0.2275	0.0105	-0.076
Mof_C 	C 	0.5774	0.2684	0.031	0.094
Mof_C 	C 	0.5478	0.2916	0.066	-0.061
Mof_H 	H 	0.584	0.3195	0.08	0.05
Mof_C 	C 	0.4652	0.2739	0.0805	0.002
Mof_C 	C 	0.4122	0.233	0.06	-0.047
Mof_H 	H 	0.3557	0.2209	0.0699	0.039
Mof_C 	C 	0.4418	0.2098	0.025	0.046
Mof_N 	N 	0.6815	0.2532	0.0333	-0.178
Mof_H 	H 	0.7141	0.2727	0.0505	0.093
Mof_H 	H 	0.7071	0.2372	0.0128	0.089
Mof_C 	C 	0.531	0.222	0.0126	-0.073
Mof_C 	C 	0.5912	0.2478	0.0384	0.066
Mof_C 	C 	0.5603	0.2753	0.0719	-0.05
Mof_H 	H 	0.6015	0.2929	0.0895	0.051
Mof_C 	C 	0.4692	0.277	0.0797	-0.006
Mof_C 	C 	0.409	0.2512	0.0539	-0.054
Mof_H 	H 	0.3467	0.2524	0.0592	0.048
Mof_C 	C 	0.4399	0.2237	0.0204	0.079
Mof_N 	N 	0.369	0.198	0.0016	-0.079
Mof_H 	H 	0.3151	0.2014	0.0113	0.041
Mof_H 	H 	0.3776	0.1792	0.9796	0.069
Mof_N 	N 	0.379	0.1731	0.007	-0.215
Mof_H 	H 	0.3273	0.1666	0.0184	0.105
Mof_H 	H 	0.3915	0.1561	0.985	0.101
Mof_O 	O 	0.1097	0.5527	0.9667	-0.56
Mof_O 	O 	0.2437	0.585	0.9548	-0.518
Mof_O 	O 	0.2605	0.4193	0.1385	-0.501
Mof_O 	O 	0.3972	0.4453	0.1243	-0.501
Mof_C 	C 	0.1901	0.5552	0.976	0.365
Mof_C 	C 	0.315	0.4464	0.1168	0.296
Mof_N 	N 	0.092	0.4647	0.0213	-0.205
Mof_H 	H 	0.0672	0.4795	0.0003	0.12
Mof_H 	H 	0.0624	0.4386	0.0358	0.106
Mof_C 	C 	0.2256	0.5225	0.0105	-0.077
Mof_C 	C 	0.1726	0.4816	0.031	0.094
Mof_C 	C 	0.2022	0.4584	0.066	-0.061
Mof_H 	H 	0.166	0.4305	0.08	0.05
Mof_C 	C 	0.2848	0.4761	0.0805	0.002
Mof_C 	C 	0.3378	0.517	0.06	-0.047
Mof_H 	H 	0.3943	0.5291	0.0699	0.039
Mof_C 	C 	0.3082	0.5402	0.025	0.046
Mof_N 	N 	0.0685	0.4968	0.0333	-0.178
Mof_H 	H 	0.0359	0.4773	0.0505	0.093
Mof_H 	H 	0.0429	0.5128	0.0128	0.089
Mof_C 	C 	0.219	0.528	0.0126	-0.073
Mof_C 	C 	0.1588	0.5022	0.0384	0.066
Mof_C 	C 	0.1897	0.4747	0.0719	-0.05
Mof_H 	H 	0.1485	0.4571	0.0895	0.051
Mof_C 	C 	0.2808	0.473	0.0797	-0.006
Mof_C 	C 	0.341	0.4988	0.0539	-0.054
Mof_H 	H 	0.4033	0.4976	0.0592	0.048
Mof_C 	C 	0.3101	0.5263	0.0204	0.079
Mof_N 	N 	0.381	0.552	0.0016	-0.079
Mof_H 	H 	0.4349	0.5486	0.0113	0.041
Mof_H 	H 	0.3724	0.5708	0.9796	0.069
Mof_N 	N 	0.371	0.5769	0.007	-0.215
Mof_H 	H 	0.4227	0.5834	0.0184	0.105
Mof_H 	H 	0.3585	0.5939	0.985	0.101
Mof_O 	O 	0.1097	0.0527	0.4667	-0.56
Mof_O 	O 	0.2437	0.085	0.4548	-0.518
Mof_O 	O 	0.2605	0.9193	0.6385	-0.501
Mof_O 	O 	0.3972	0.9453	0.6243	-0.501
Mof_C 	C 	0.1901	0.0552	0.476	0.365
Mof_C 	C 	0.315	0.9464	0.6168	0.296
Mof_N 	N 	0.092	0.9647	0.5213	-0.206
Mof_H 	H 	0.0672	0.9795	0.5003	0.12
Mof_H 	H 	0.0624	0.9386	0.5358	0.106
Mof_C 	C 	0.2256	0.0225	0.5105	-0.076
Mof_C 	C 	0.1726	0.9816	0.531	0.098
Mof_C 	C 	0.2022	0.9584	0.566	-0.06
Mof_H 	H 	0.166	0.9305	0.58	0.05
Mof_C 	C 	0.2848	0.9761	0.5805	0.002
Mof_C 	C 	0.3378	0.017	0.56	-0.048
Mof_H 	H 	0.3943	0.0291	0.5699	0.04
Mof_C 	C 	0.3082	0.0402	0.525	0.045
Mof_N 	N 	0.0685	0.9968	0.5333	-0.178
Mof_H 	H 	0.0359	0.9773	0.5505	0.093
Mof_H 	H 	0.0429	0.0128	0.5128	0.09
Mof_C 	C 	0.219	0.028	0.5126	-0.073
Mof_C 	C 	0.1588	0.0022	0.5384	0.063
Mof_C 	C 	0.1897	0.9747	0.5719	-0.051
Mof_H 	H 	0.1485	0.9571	0.5895	0.051
Mof_C 	C 	0.2808	0.973	0.5797	-0.006
Mof_C 	C 	0.341	0.9988	0.5539	-0.053
Mof_H 	H 	0.4033	0.9976	0.5592	0.048
Mof_C 	C 	0.3101	0.0263	0.5204	0.079
Mof_N 	N 	0.381	0.052	0.5016	-0.078
Mof_H 	H 	0.4349	0.0486	0.5113	0.041
Mof_H 	H 	0.3724	0.0708	0.4796	0.069
Mof_N 	N 	0.371	0.0769	0.507	-0.215
Mof_H 	H 	0.4227	0.0834	0.5184	0.105
Mof_H 	H 	0.3585	0.0939	0.485	0.101
Mof_O 	O 	0.6097	0.5527	0.4667	-0.56
Mof_O 	O 	0.7437	0.585	0.4548	-0.518
Mof_O 	O 	0.7605	0.4193	0.6385	-0.501
Mof_O 	O 	0.8972	0.4453	0.6243	-0.501
Mof_C 	C 	0.6901	0.5552	0.476	0.365
Mof_C 	C 	0.815	0.4464	0.6168	0.296
Mof_N 	N 	0.592	0.4647	0.5213	-0.205
Mof_H 	H 	0.5672	0.4795	0.5003	0.12
Mof_H 	H 	0.5624	0.4386	0.5358	0.106
Mof_C 	C 	0.7256	0.5225	0.5105	-0.076
Mof_C 	C 	0.6726	0.4816	0.531	0.094
Mof_C 	C 	0.7022	0.4584	0.566	-0.061
Mof_H 	H 	0.666	0.4305	0.58	0.05
Mof_C 	C 	0.7848	0.4761	0.5805	0.002
Mof_C 	C 	0.8378	0.517	0.56	-0.047
Mof_H 	H 	0.8943	0.5291	0.5699	0.039
Mof_C 	C 	0.8082	0.5402	0.525	0.046
Mof_N 	N 	0.5685	0.4968	0.5333	-0.178
Mof_H 	H 	0.5359	0.4773	0.5505	0.093
Mof_H 	H 	0.5429	0.5128	0.5128	0.089
Mof_C 	C 	0.719	0.528	0.5126	-0.073
Mof_C 	C 	0.6588	0.5022	0.5384	0.066
Mof_C 	C 	0.6897	0.4747	0.5719	-0.05
Mof_H 	H 	0.6485	0.4571	0.5895	0.051
Mof_C 	C 	0.7808	0.473	0.5797	-0.006
Mof_C 	C 	0.841	0.4988	0.5539	-0.054
Mof_H 	H 	0.9033	0.4976	0.5592	0.048
Mof_C 	C 	0.8101	0.5263	0.5204	0.079
Mof_N 	N 	0.881	0.552	0.5016	-0.079
Mof_H 	H 	0.9349	0.5486	0.5113	0.041
Mof_H 	H 	0.8724	0.5708	0.4796	0.069
Mof_N 	N 	0.871	0.5769	0.507	-0.215
Mof_H 	H 	0.9227	0.5834	0.5184	0.105
Mof_H 	H 	0.8585	0.5939	0.485	0.101
Mof_O 	O 	0.6097	0.0527	0.9667	-0.56
Mof_O 	O 	0.7437	0.085	0.9548	-0.518
Mof_O 	O 	0.7605	0.9193	0.1385	-0.501
Mof_O 	O 	0.8972	0.9453	0.1243	-0.501
Mof_C 	C 	0.6901	0.0552	0.976	0.365
Mof_C 	C 	0.815	0.9464	0.1168	0.296
Mof_N 	N 	0.592	0.9647	0.0213	-0.205
Mof_H 	H 	0.5672	0.9795	0.0003	0.12
Mof_H 	H 	0.5624	0.9386	0.0358	0.106
Mof_C 	C 	0.7256	0.0225	0.0105	-0.077
Mof_C 	C 	0.6726	0.9816	0.031	0.093
Mof_C 	C 	0.7022	0.9584	0.066	-0.061
Mof_H 	H 	0.666	0.9305	0.08	0.05
Mof_C 	C 	0.7848	0.9761	0.0805	0.002
Mof_C 	C 	0.8378	0.017	0.06	-0.046
Mof_H 	H 	0.8943	0.0291	0.0699	0.039
Mof_C 	C 	0.8082	0.0402	0.025	0.046
Mof_N 	N 	0.5685	0.9968	0.0333	-0.179
Mof_H 	H 	0.5359	0.9773	0.0505	0.093
Mof_H 	H 	0.5429	0.0128	0.0128	0.089
Mof_C 	C 	0.719	0.028	0.0126	-0.073
Mof_C 	C 	0.6588	0.0022	0.0384	0.067
Mof_C 	C 	0.6897	0.9747	0.0719	-0.049
Mof_H 	H 	0.6485	0.9571	0.0895	0.05
Mof_C 	C 	0.7808	0.973	0.0797	-0.005
Mof_C 	C 	0.841	0.9988	0.0539	-0.055
Mof_H 	H 	0.9033	0.9976	0.0592	0.049
Mof_C 	C 	0.8101	0.0263	0.0204	0.079
Mof_N 	N 	0.881	0.052	0.0016	-0.079
Mof_H 	H 	0.9349	0.0486	0.0113	0.041
Mof_H 	H 	0.8724	0.0708	0.9796	0.069
Mof_N 	N 	0.871	0.0769	0.007	-0.215
Mof_H 	H 	0.9227	0.0834	0.0184	0.105
Mof_H 	H 	0.8585	0.0939	0.985	0.1
Mof_In	In	0.875	0.375	0.67155	2.533
Mof_In	In	0.875	0.875	0.17155	2.533
Mof_In	In	0.375	0.375	0.17155	2.533
Mof_In	In	0.375	0.875	0.67155	2.533
Mof_In	In	0.125	0.625	0.92155	2.533
Mof_In	In	0.125	0.125	0.42155	2.533
Mof_In	In	0.625	0.625	0.42155	2.533
Mof_In	In	0.625	0.125	0.92155	2.533
_end
