data_functionalizedCrystal
_audit_creation_method	'EQeq! by Chris Wilmer'
_symmetry_space_group_name_H-M	'P1'
_symmetry_Int_Tables_number	1
_symmetry_cell_setting	triclinic
loop_
_symmetry_equiv_pos_as_xyz
  x,y,z
_cell_length_a	29.983
_cell_length_b	29.983
_cell_length_c	29.983
_cell_angle_alpha	90
_cell_angle_beta	90
_cell_angle_gamma	90
loop_
_atom_site_label
_atom_site_type_symbol
_atom_site_fract_x
_atom_site_fract_y
_atom_site_fract_z
_atom_site_charge
Mof_H 	H 	0.1359	0.2231	0.9769	0.207
Mof_H 	H 	0.1359	0.7231	0.4769	0.135
Mof_H 	H 	0.6359	0.2231	0.4769	0.137
Mof_H 	H 	0.6359	0.7231	0.9769	0.215
Mof_H 	H 	0.8641	0.7769	0.9769	0.226
Mof_H 	H 	0.8641	0.2769	0.4769	0.149
Mof_H 	H 	0.3641	0.7769	0.4769	0.143
Mof_H 	H 	0.3641	0.2769	0.9769	0.215
Mof_H 	H 	0.8641	0.2231	0.0231	0.152
Mof_H 	H 	0.8641	0.7231	0.5231	0.15
Mof_H 	H 	0.3641	0.2231	0.5231	0.136
Mof_H 	H 	0.3641	0.7231	0.0231	0.146
Mof_H 	H 	0.1359	0.7769	0.0231	0.144
Mof_H 	H 	0.1359	0.2769	0.5231	0.134
Mof_H 	H 	0.6359	0.7769	0.5231	0.144
Mof_H 	H 	0.6359	0.2769	0.0231	0.145
Mof_H 	H 	0.9769	0.1359	0.2231	0.207
Mof_H 	H 	0.9769	0.6359	0.7231	0.215
Mof_H 	H 	0.4769	0.1359	0.7231	0.135
Mof_H 	H 	0.4769	0.6359	0.2231	0.137
Mof_H 	H 	0.9769	0.8641	0.7769	0.226
Mof_H 	H 	0.9769	0.3641	0.2769	0.215
Mof_H 	H 	0.4769	0.8641	0.2769	0.149
Mof_H 	H 	0.4769	0.3641	0.7769	0.143
Mof_H 	H 	0.0231	0.8641	0.2231	0.152
Mof_H 	H 	0.0231	0.3641	0.7231	0.146
Mof_H 	H 	0.5231	0.8641	0.7231	0.15
Mof_H 	H 	0.5231	0.3641	0.2231	0.136
Mof_H 	H 	0.0231	0.1359	0.7769	0.144
Mof_H 	H 	0.0231	0.6359	0.2769	0.145
Mof_H 	H 	0.5231	0.1359	0.2769	0.134
Mof_H 	H 	0.5231	0.6359	0.7769	0.144
Mof_H 	H 	0.2231	0.9769	0.1359	0.208
Mof_H 	H 	0.2231	0.4769	0.6359	0.138
Mof_H 	H 	0.7231	0.9769	0.6359	0.216
Mof_H 	H 	0.7231	0.4769	0.1359	0.136
Mof_H 	H 	0.7769	0.9769	0.8641	0.227
Mof_H 	H 	0.7769	0.4769	0.3641	0.144
Mof_H 	H 	0.2769	0.9769	0.3641	0.216
Mof_H 	H 	0.2769	0.4769	0.8641	0.15
Mof_H 	H 	0.2231	0.0231	0.8641	0.153
Mof_H 	H 	0.2231	0.5231	0.3641	0.137
Mof_H 	H 	0.7231	0.0231	0.3641	0.147
Mof_H 	H 	0.7231	0.5231	0.8641	0.151
Mof_H 	H 	0.7769	0.0231	0.1359	0.145
Mof_H 	H 	0.7769	0.5231	0.6359	0.145
Mof_H 	H 	0.2769	0.0231	0.6359	0.146
Mof_H 	H 	0.2769	0.5231	0.1359	0.135
Mof_H 	H 	0.2231	0.1359	0.0231	0.138
Mof_H 	H 	0.2231	0.6359	0.5231	0.138
Mof_H 	H 	0.7231	0.1359	0.5231	0.136
Mof_H 	H 	0.7231	0.6359	0.0231	0.147
Mof_H 	H 	0.7769	0.8641	0.0231	0.16
Mof_H 	H 	0.7769	0.3641	0.5231	0.144
Mof_H 	H 	0.2769	0.8641	0.5231	0.15
Mof_H 	H 	0.2769	0.3641	0.0231	0.146
Mof_H 	H 	0.2231	0.8641	0.9769	0.222
Mof_H 	H 	0.2231	0.3641	0.4769	0.137
Mof_H 	H 	0.7231	0.8641	0.4769	0.151
Mof_H 	H 	0.7231	0.3641	0.9769	0.216
Mof_H 	H 	0.7769	0.1359	0.9769	0.214
Mof_H 	H 	0.7769	0.6359	0.4769	0.145
Mof_H 	H 	0.2769	0.1359	0.4769	0.135
Mof_H 	H 	0.2769	0.6359	0.9769	0.216
Mof_H 	H 	0.1359	0.9769	0.7769	0.214
Mof_H 	H 	0.1359	0.4769	0.2769	0.135
Mof_H 	H 	0.6359	0.9769	0.2769	0.216
Mof_H 	H 	0.6359	0.4769	0.7769	0.145
Mof_H 	H 	0.8641	0.9769	0.2231	0.222
Mof_H 	H 	0.8641	0.4769	0.7231	0.151
Mof_H 	H 	0.3641	0.9769	0.7231	0.216
Mof_H 	H 	0.3641	0.4769	0.2231	0.137
Mof_H 	H 	0.8641	0.0231	0.7769	0.16
Mof_H 	H 	0.8641	0.5231	0.2769	0.15
Mof_H 	H 	0.3641	0.0231	0.2769	0.146
Mof_H 	H 	0.3641	0.5231	0.7769	0.144
Mof_H 	H 	0.1359	0.0231	0.2231	0.138
Mof_H 	H 	0.1359	0.5231	0.7231	0.136
Mof_H 	H 	0.6359	0.0231	0.7231	0.147
Mof_H 	H 	0.6359	0.5231	0.2231	0.138
Mof_H 	H 	0.9769	0.2231	0.8641	0.222
Mof_H 	H 	0.9769	0.7231	0.3641	0.216
Mof_H 	H 	0.4769	0.2231	0.3641	0.137
Mof_H 	H 	0.4769	0.7231	0.8641	0.151
Mof_H 	H 	0.9769	0.7769	0.1359	0.214
Mof_H 	H 	0.9769	0.2769	0.6359	0.216
Mof_H 	H 	0.4769	0.7769	0.6359	0.145
Mof_H 	H 	0.4769	0.2769	0.1359	0.135
Mof_H 	H 	0.0231	0.2231	0.1359	0.138
Mof_H 	H 	0.0231	0.7231	0.6359	0.147
Mof_H 	H 	0.5231	0.2231	0.6359	0.138
Mof_H 	H 	0.5231	0.7231	0.1359	0.136
Mof_H 	H 	0.0231	0.7769	0.8641	0.16
Mof_H 	H 	0.0231	0.2769	0.3641	0.146
Mof_H 	H 	0.5231	0.7769	0.3641	0.144
Mof_H 	H 	0.5231	0.2769	0.8641	0.15
Mof_H 	H 	0.8641	0.7769	0.0231	0.16
Mof_H 	H 	0.8641	0.2769	0.5231	0.15
Mof_H 	H 	0.3641	0.7769	0.5231	0.144
Mof_H 	H 	0.3641	0.2769	0.0231	0.146
Mof_H 	H 	0.1359	0.2231	0.0231	0.138
Mof_H 	H 	0.1359	0.7231	0.5231	0.136
Mof_H 	H 	0.6359	0.2231	0.5231	0.138
Mof_H 	H 	0.6359	0.7231	0.0231	0.147
Mof_H 	H 	0.1359	0.7769	0.9769	0.214
Mof_H 	H 	0.1359	0.2769	0.4769	0.135
Mof_H 	H 	0.6359	0.7769	0.4769	0.145
Mof_H 	H 	0.6359	0.2769	0.9769	0.216
Mof_H 	H 	0.8641	0.2231	0.9769	0.222
Mof_H 	H 	0.8641	0.7231	0.4769	0.151
Mof_H 	H 	0.3641	0.2231	0.4769	0.137
Mof_H 	H 	0.3641	0.7231	0.9769	0.216
Mof_H 	H 	0.0231	0.8641	0.7769	0.16
Mof_H 	H 	0.0231	0.3641	0.2769	0.146
Mof_H 	H 	0.5231	0.8641	0.2769	0.15
Mof_H 	H 	0.5231	0.3641	0.7769	0.144
Mof_H 	H 	0.0231	0.1359	0.2231	0.138
Mof_H 	H 	0.0231	0.6359	0.7231	0.147
Mof_H 	H 	0.5231	0.1359	0.7231	0.136
Mof_H 	H 	0.5231	0.6359	0.2231	0.138
Mof_H 	H 	0.9769	0.1359	0.7769	0.214
Mof_H 	H 	0.9769	0.6359	0.2769	0.216
Mof_H 	H 	0.4769	0.1359	0.2769	0.135
Mof_H 	H 	0.4769	0.6359	0.7769	0.145
Mof_H 	H 	0.9769	0.8641	0.2231	0.222
Mof_H 	H 	0.9769	0.3641	0.7231	0.216
Mof_H 	H 	0.4769	0.8641	0.7231	0.151
Mof_H 	H 	0.4769	0.3641	0.2231	0.137
Mof_H 	H 	0.7769	0.0231	0.8641	0.16
Mof_H 	H 	0.7769	0.5231	0.3641	0.144
Mof_H 	H 	0.2769	0.0231	0.3641	0.146
Mof_H 	H 	0.2769	0.5231	0.8641	0.15
Mof_H 	H 	0.2231	0.0231	0.1359	0.138
Mof_H 	H 	0.2231	0.5231	0.6359	0.138
Mof_H 	H 	0.7231	0.0231	0.6359	0.147
Mof_H 	H 	0.7231	0.5231	0.1359	0.136
Mof_H 	H 	0.7769	0.9769	0.1359	0.214
Mof_H 	H 	0.7769	0.4769	0.6359	0.145
Mof_H 	H 	0.2769	0.9769	0.6359	0.216
Mof_H 	H 	0.2769	0.4769	0.1359	0.135
Mof_H 	H 	0.2231	0.9769	0.8641	0.222
Mof_H 	H 	0.2231	0.4769	0.3641	0.137
Mof_H 	H 	0.7231	0.9769	0.3641	0.216
Mof_H 	H 	0.7231	0.4769	0.8641	0.151
Mof_H 	H 	0.7769	0.8641	0.9769	0.227
Mof_H 	H 	0.7769	0.3641	0.4769	0.144
Mof_H 	H 	0.2769	0.8641	0.4769	0.15
Mof_H 	H 	0.2769	0.3641	0.9769	0.216
Mof_H 	H 	0.2231	0.1359	0.9769	0.208
Mof_H 	H 	0.2231	0.6359	0.4769	0.138
Mof_H 	H 	0.7231	0.1359	0.4769	0.136
Mof_H 	H 	0.7231	0.6359	0.9769	0.216
Mof_H 	H 	0.7769	0.1359	0.0231	0.145
Mof_H 	H 	0.7769	0.6359	0.5231	0.145
Mof_H 	H 	0.2769	0.1359	0.5231	0.135
Mof_H 	H 	0.2769	0.6359	0.0231	0.146
Mof_H 	H 	0.2231	0.8641	0.0231	0.153
Mof_H 	H 	0.2231	0.3641	0.5231	0.137
Mof_H 	H 	0.7231	0.8641	0.5231	0.151
Mof_H 	H 	0.7231	0.3641	0.0231	0.147
Mof_H 	H 	0.8641	0.0231	0.2231	0.153
Mof_H 	H 	0.8641	0.5231	0.7231	0.151
Mof_H 	H 	0.3641	0.0231	0.7231	0.147
Mof_H 	H 	0.3641	0.5231	0.2231	0.137
Mof_H 	H 	0.1359	0.0231	0.7769	0.145
Mof_H 	H 	0.1359	0.5231	0.2769	0.135
Mof_H 	H 	0.6359	0.0231	0.2769	0.146
Mof_H 	H 	0.6359	0.5231	0.7769	0.145
Mof_H 	H 	0.1359	0.9769	0.2231	0.208
Mof_H 	H 	0.1359	0.4769	0.7231	0.136
Mof_H 	H 	0.6359	0.9769	0.7231	0.216
Mof_H 	H 	0.6359	0.4769	0.2231	0.138
Mof_H 	H 	0.8641	0.9769	0.7769	0.227
Mof_H 	H 	0.8641	0.4769	0.2769	0.15
Mof_H 	H 	0.3641	0.9769	0.2769	0.216
Mof_H 	H 	0.3641	0.4769	0.7769	0.144
Mof_H 	H 	0.0231	0.7769	0.1359	0.145
Mof_H 	H 	0.0231	0.2769	0.6359	0.146
Mof_H 	H 	0.5231	0.7769	0.6359	0.145
Mof_H 	H 	0.5231	0.2769	0.1359	0.135
Mof_H 	H 	0.0231	0.2231	0.8641	0.153
Mof_H 	H 	0.0231	0.7231	0.3641	0.147
Mof_H 	H 	0.5231	0.2231	0.3641	0.137
Mof_H 	H 	0.5231	0.7231	0.8641	0.151
Mof_H 	H 	0.9769	0.7769	0.8641	0.227
Mof_H 	H 	0.9769	0.2769	0.3641	0.216
Mof_H 	H 	0.4769	0.7769	0.3641	0.144
Mof_H 	H 	0.4769	0.2769	0.8641	0.15
Mof_H 	H 	0.9769	0.2231	0.1359	0.208
Mof_H 	H 	0.9769	0.7231	0.6359	0.216
Mof_H 	H 	0.4769	0.2231	0.6359	0.138
Mof_H 	H 	0.4769	0.7231	0.1359	0.136
Mof_Zr	Zr	0.08251	0.5	-0	3.207
Mof_Zr	Zr	0.58251	0.5	0.5	3.214
Mof_Zr	Zr	0.91749	0.5	-0	3.207
Mof_Zr	Zr	0.91749	0	0.5	3.207
Mof_Zr	Zr	0.41749	0.5	0.5	3.214
Mof_Zr	Zr	0.58251	0	-0	3.201
Mof_Zr	Zr	9.367e-33	0.08251	0.5	3.207
Mof_Zr	Zr	7.4923e-33	0.58251	-0	3.201
Mof_Zr	Zr	0.5	0.58251	0.5	3.214
Mof_Zr	Zr	1.8747e-33	0.91749	0.5	3.207
Mof_Zr	Zr	3.74615e-33	0.41749	-0	3.201
Mof_Zr	Zr	0.5	0.08251	-0	3.207
Mof_Zr	Zr	0.5	0	0.08251	3.207
Mof_Zr	Zr	0.5	0.5	0.58251	3.214
Mof_Zr	Zr	0.5	7.4923e-33	0.91749	3.207
Mof_Zr	Zr	0.5	0.5	0.41749	3.214
Mof_Zr	Zr	3.44004e-33	0.5	0.91749	3.207
Mof_Zr	Zr	9.67636e-33	7.4923e-33	0.58251	3.201
Mof_Zr	Zr	0.5	0.91749	-0	3.207
Mof_Zr	Zr	0.5	0.41749	0.5	3.214
Mof_Zr	Zr	0.08251	0	0.5	3.207
Mof_Zr	Zr	0.41749	0	-0	3.201
Mof_Zr	Zr	5.31149e-33	3.74615e-33	0.41749	3.201
Mof_Zr	Zr	8.7382e-33	0.5	0.08251	3.207
Mof_O 	O 	0.11965	0.4363	-0	-0.626
Mof_C 	C 	0.1286	0.3162	-0	-0.116
Mof_H 	H 	0.0984	0.3081	-0	0.07
Mof_C 	C 	0.1604	0.2833	-0	0.114
Mof_C 	C 	0.2291	0.2483	-0	-0.013
Mof_H 	H 	0.2119	0.2213	-0	0.016
Mof_N 	N 	0.1441	0.2367	-0	-0.376
Mof_O 	O 	0.11965	0.9363	0.5	-0.572
Mof_C 	C 	0.1286	0.8162	0.5	-0.111
Mof_H 	H 	0.0984	0.8081	0.5	0.082
Mof_C 	C 	0.1604	0.7833	0.5	0.118
Mof_C 	C 	0.2291	0.7483	0.5	-0.01
Mof_H 	H 	0.2119	0.7213	0.5	0.022
Mof_N 	N 	0.1441	0.7367	0.5	-0.309
Mof_O 	O 	0.61965	0.4363	0.5	-0.604
Mof_C 	C 	0.6286	0.3162	0.5	-0.109
Mof_H 	H 	0.5984	0.3081	0.5	0.084
Mof_C 	C 	0.6604	0.2833	0.5	0.116
Mof_C 	C 	0.7291	0.2483	0.5	-0.011
Mof_H 	H 	0.7119	0.2213	0.5	0.021
Mof_N 	N 	0.6441	0.2367	0.5	-0.31
Mof_O 	O 	0.61965	0.9363	-0	-0.594
Mof_C 	C 	0.6286	0.8162	-0	-0.125
Mof_H 	H 	0.5984	0.8081	-0	0.079
Mof_C 	C 	0.6604	0.7833	-0	0.125
Mof_C 	C 	0.7291	0.7483	-0	-0.012
Mof_H 	H 	0.7119	0.7213	-0	0.017
Mof_N 	N 	0.6441	0.7367	-0	-0.38
Mof_O 	O 	0.88035	0.5637	-0	-0.622
Mof_C 	C 	0.8714	0.6838	-0	-0.127
Mof_H 	H 	0.9016	0.6919	-0	0.092
Mof_C 	C 	0.8396	0.7167	-0	0.133
Mof_C 	C 	0.7709	0.7517	-0	-0.012
Mof_H 	H 	0.7881	0.7787	-0	0.018
Mof_N 	N 	0.8559	0.7633	-0	-0.385
Mof_O 	O 	0.88035	0.0637	0.5	-0.606
Mof_C 	C 	0.8714	0.1838	0.5	-0.114
Mof_H 	H 	0.9016	0.1919	0.5	0.099
Mof_C 	C 	0.8396	0.2167	0.5	0.127
Mof_C 	C 	0.7709	0.2517	0.5	-0.01
Mof_H 	H 	0.7881	0.2787	0.5	0.023
Mof_N 	N 	0.8559	0.2633	0.5	-0.316
Mof_O 	O 	0.38035	0.5637	0.5	-0.604
Mof_C 	C 	0.3714	0.6838	0.5	-0.11
Mof_H 	H 	0.4016	0.6919	0.5	0.085
Mof_C 	C 	0.3396	0.7167	0.5	0.119
Mof_C 	C 	0.2709	0.7517	0.5	-0.011
Mof_H 	H 	0.2881	0.7787	0.5	0.022
Mof_N 	N 	0.3559	0.7633	0.5	-0.313
Mof_O 	O 	0.38035	0.0637	-0	-0.631
Mof_C 	C 	0.3714	0.1838	-0	-0.117
Mof_H 	H 	0.4016	0.1919	-0	0.075
Mof_C 	C 	0.3396	0.2167	-0	0.118
Mof_C 	C 	0.2709	0.2517	-0	-0.014
Mof_H 	H 	0.2881	0.2787	-0	0.017
Mof_N 	N 	0.3559	0.2633	-0	-0.38
Mof_O 	O 	0.88035	0.4363	-0	-0.622
Mof_C 	C 	0.8714	0.3162	-0	-0.126
Mof_H 	H 	0.9016	0.3081	-0	0.091
Mof_C 	C 	0.8396	0.2833	-0	0.129
Mof_C 	C 	0.7709	0.2483	-0	-0.012
Mof_H 	H 	0.7881	0.2213	-0	0.018
Mof_N 	N 	0.8559	0.2367	-0	-0.382
Mof_O 	O 	0.88035	0.9363	0.5	-0.57
Mof_C 	C 	0.8714	0.8162	0.5	-0.121
Mof_H 	H 	0.9016	0.8081	0.5	0.102
Mof_C 	C 	0.8396	0.7833	0.5	0.133
Mof_C 	C 	0.7709	0.7483	0.5	-0.008
Mof_H 	H 	0.7881	0.7213	0.5	0.024
Mof_N 	N 	0.8559	0.7367	0.5	-0.317
Mof_O 	O 	0.38035	0.4363	0.5	-0.604
Mof_C 	C 	0.3714	0.3162	0.5	-0.108
Mof_H 	H 	0.4016	0.3081	0.5	0.083
Mof_C 	C 	0.3396	0.2833	0.5	0.115
Mof_C 	C 	0.2709	0.2483	0.5	-0.011
Mof_H 	H 	0.2881	0.2213	0.5	0.022
Mof_N 	N 	0.3559	0.2367	0.5	-0.31
Mof_O 	O 	0.38035	0.9363	-0	-0.594
Mof_C 	C 	0.3714	0.8162	-0	-0.124
Mof_H 	H 	0.4016	0.8081	-0	0.078
Mof_C 	C 	0.3396	0.7833	-0	0.124
Mof_C 	C 	0.2709	0.7483	-0	-0.012
Mof_H 	H 	0.2881	0.7213	-0	0.018
Mof_N 	N 	0.3559	0.7367	-0	-0.38
Mof_O 	O 	0.11965	0.5637	-0	-0.626
Mof_C 	C 	0.1286	0.6838	-0	-0.117
Mof_H 	H 	0.0984	0.6919	-0	0.072
Mof_C 	C 	0.1604	0.7167	-0	0.118
Mof_C 	C 	0.2291	0.7517	-0	-0.013
Mof_H 	H 	0.2119	0.7787	-0	0.016
Mof_N 	N 	0.1441	0.7633	-0	-0.378
Mof_O 	O 	0.11965	0.0637	0.5	-0.609
Mof_C 	C 	0.1286	0.1838	0.5	-0.104
Mof_H 	H 	0.0984	0.1919	0.5	0.079
Mof_C 	C 	0.1604	0.2167	0.5	0.111
Mof_C 	C 	0.2291	0.2517	0.5	-0.012
Mof_H 	H 	0.2119	0.2787	0.5	0.021
Mof_N 	N 	0.1441	0.2633	0.5	-0.308
Mof_O 	O 	0.61965	0.5637	0.5	-0.604
Mof_C 	C 	0.6286	0.6838	0.5	-0.11
Mof_H 	H 	0.5984	0.6919	0.5	0.086
Mof_C 	C 	0.6604	0.7167	0.5	0.12
Mof_C 	C 	0.7291	0.7517	0.5	-0.011
Mof_H 	H 	0.7119	0.7787	0.5	0.02
Mof_N 	N 	0.6441	0.7633	0.5	-0.313
Mof_O 	O 	0.61965	0.0637	-0	-0.631
Mof_C 	C 	0.6286	0.1838	-0	-0.118
Mof_H 	H 	0.5984	0.1919	-0	0.075
Mof_C 	C 	0.6604	0.2167	-0	0.119
Mof_C 	C 	0.7291	0.2517	-0	-0.013
Mof_H 	H 	0.7119	0.2787	-0	0.016
Mof_N 	N 	0.6441	0.2633	-0	-0.379
Mof_O 	O 	-2.11029e-33	0.11965	0.4363	-0.626
Mof_C 	C 	4.93171e-33	0.1286	0.3162	-0.116
Mof_H 	H 	1.15519e-33	0.0984	0.3081	0.07
Mof_C 	C 	1.0622e-33	0.1604	0.2833	0.114
Mof_C 	C 	-9.42099e-34	0.2291	0.2483	-0.013
Mof_H 	H 	8.29742e-34	0.2119	0.2213	0.016
Mof_N 	N 	2.76056e-33	0.1441	0.2367	-0.376
Mof_O 	O 	1.10029e-32	0.61965	0.9363	-0.594
Mof_C 	C 	1.05526e-32	0.6286	0.8162	-0.125
Mof_H 	H 	-4.46241e-33	0.5984	0.8081	0.079
Mof_C 	C 	1.79215e-32	0.6604	0.7833	0.125
Mof_C 	C 	1.0298e-32	0.7291	0.7483	-0.012
Mof_H 	H 	2.70444e-33	0.7119	0.7213	0.017
Mof_N 	N 	1.02545e-32	0.6441	0.7367	-0.38
Mof_O 	O 	0.5	0.11965	0.9363	-0.572
Mof_C 	C 	0.5	0.1286	0.8162	-0.111
Mof_H 	H 	0.5	0.0984	0.8081	0.082
Mof_C 	C 	0.5	0.1604	0.7833	0.118
Mof_C 	C 	0.5	0.2291	0.7483	-0.01
Mof_H 	H 	0.5	0.2119	0.7213	0.022
Mof_N 	N 	0.5	0.1441	0.7367	-0.309
Mof_O 	O 	0.5	0.61965	0.4363	-0.604
Mof_C 	C 	0.5	0.6286	0.3162	-0.109
Mof_H 	H 	0.5	0.5984	0.3081	0.084
Mof_C 	C 	0.5	0.6604	0.2833	0.116
Mof_C 	C 	0.5	0.7291	0.2483	-0.011
Mof_H 	H 	0.5	0.7119	0.2213	0.021
Mof_N 	N 	0.5	0.6441	0.2367	-0.31
Mof_O 	O 	2.45904e-32	0.88035	0.5637	-0.622
Mof_C 	C 	1.75484e-32	0.8714	0.6838	-0.127
Mof_H 	H 	-4.89809e-33	0.9016	0.6919	0.092
Mof_C 	C 	1.01795e-32	0.8396	0.7167	0.133
Mof_C 	C 	2.81842e-33	0.7709	0.7517	-0.012
Mof_H 	H 	2.91966e-33	0.7881	0.7787	0.018
Mof_N 	N 	2.86192e-33	0.8559	0.7633	-0.385
Mof_O 	O 	-3.03904e-33	0.38035	0.0637	-0.631
Mof_C 	C 	6.8914e-34	0.3714	0.1838	-0.117
Mof_H 	H 	4.46566e-33	0.4016	0.1919	0.075
Mof_C 	C 	4.55864e-33	0.3396	0.2167	0.118
Mof_C 	C 	4.68987e-33	0.2709	0.2517	-0.014
Mof_H 	H 	-2.70119e-33	0.2881	0.2787	0.017
Mof_N 	N 	6.60644e-33	0.3559	0.2633	-0.38
Mof_O 	O 	0.5	0.88035	0.0637	-0.606
Mof_C 	C 	0.5	0.8714	0.1838	-0.114
Mof_H 	H 	0.5	0.9016	0.1919	0.099
Mof_C 	C 	0.5	0.8396	0.2167	0.127
Mof_C 	C 	0.5	0.7709	0.2517	-0.01
Mof_H 	H 	0.5	0.7881	0.2787	0.023
Mof_N 	N 	0.5	0.8559	0.2633	-0.316
Mof_O 	O 	0.5	0.38035	0.5637	-0.604
Mof_C 	C 	0.5	0.3714	0.6838	-0.11
Mof_H 	H 	0.5	0.4016	0.6919	0.085
Mof_C 	C 	0.5	0.3396	0.7167	0.119
Mof_C 	C 	0.5	0.2709	0.7517	-0.011
Mof_H 	H 	0.5	0.2881	0.7787	0.022
Mof_N 	N 	0.5	0.3559	0.7633	-0.313
Mof_O 	O 	1.28743e-32	0.88035	0.4363	-0.622
Mof_C 	C 	1.2424e-32	0.8714	0.3162	-0.126
Mof_H 	H 	4.90134e-33	0.9016	0.3081	0.091
Mof_C 	C 	8.5545e-33	0.8396	0.2833	0.129
Mof_C 	C 	-4.68825e-33	0.7709	0.2483	-0.012
Mof_H 	H 	8.32204e-33	0.7881	0.2213	0.018
Mof_N 	N 	8.87483e-34	0.8559	0.2367	-0.382
Mof_O 	O 	-3.98174e-33	0.38035	0.9363	-0.594
Mof_C 	C 	3.06026e-33	0.3714	0.8162	-0.124
Mof_H 	H 	-4.46241e-33	0.4016	0.8081	0.078
Mof_C 	C 	-4.5554e-33	0.3396	0.7833	0.124
Mof_C 	C 	2.80568e-33	0.2709	0.7483	-0.012
Mof_H 	H 	2.70444e-33	0.2881	0.7213	0.018
Mof_N 	N 	1.02545e-32	0.3559	0.7367	-0.38
Mof_O 	O 	0.5	0.88035	0.9363	-0.57
Mof_C 	C 	0.5	0.8714	0.8162	-0.121
Mof_H 	H 	0.5	0.9016	0.8081	0.102
Mof_C 	C 	0.5	0.8396	0.7833	0.133
Mof_C 	C 	0.5	0.7709	0.7483	-0.008
Mof_H 	H 	0.5	0.7881	0.7213	0.024
Mof_N 	N 	0.5	0.8559	0.7367	-0.317
Mof_O 	O 	0.5	0.38035	0.4363	-0.604
Mof_C 	C 	0.5	0.3714	0.3162	-0.108
Mof_H 	H 	0.5	0.4016	0.3081	0.083
Mof_C 	C 	0.5	0.3396	0.2833	0.115
Mof_C 	C 	0.5	0.2709	0.2483	-0.011
Mof_H 	H 	0.5	0.2881	0.2213	0.022
Mof_N 	N 	0.5	0.3559	0.2367	-0.31
Mof_O 	O 	9.60584e-33	0.11965	0.5637	-0.626
Mof_C 	C 	1.00561e-32	0.1286	0.6838	-0.117
Mof_H 	H 	2.59421e-33	0.0984	0.6919	0.072
Mof_C 	C 	-4.80511e-33	0.1604	0.7167	0.118
Mof_C 	C 	2.81842e-33	0.2291	0.7517	-0.013
Mof_H 	H 	-1.20649e-32	0.2119	0.7787	0.016
Mof_N 	N 	-4.63038e-33	0.1441	0.7633	-0.378
Mof_O 	O 	4.45326e-33	0.61965	0.0637	-0.631
Mof_C 	C 	6.8914e-34	0.6286	0.1838	-0.118
Mof_H 	H 	-3.02664e-33	0.5984	0.1919	0.075
Mof_C 	C 	4.55864e-33	0.6604	0.2167	0.119
Mof_C 	C 	8.43602e-33	0.7291	0.2517	-0.013
Mof_H 	H 	-6.44734e-33	0.7119	0.2787	0.016
Mof_N 	N 	1.03526e-32	0.6441	0.2633	-0.379
Mof_O 	O 	0.5	0.11965	0.0637	-0.609
Mof_C 	C 	0.5	0.1286	0.1838	-0.104
Mof_H 	H 	0.5	0.0984	0.1919	0.079
Mof_C 	C 	0.5	0.1604	0.2167	0.111
Mof_C 	C 	0.5	0.2291	0.2517	-0.012
Mof_H 	H 	0.5	0.2119	0.2787	0.021
Mof_N 	N 	0.5	0.1441	0.2633	-0.308
Mof_O 	O 	0.5	0.61965	0.5637	-0.604
Mof_C 	C 	0.5	0.6286	0.6838	-0.11
Mof_H 	H 	0.5	0.5984	0.6919	0.086
Mof_C 	C 	0.5	0.6604	0.7167	0.12
Mof_C 	C 	0.5	0.7291	0.7517	-0.011
Mof_H 	H 	0.5	0.7119	0.7787	0.02
Mof_N 	N 	0.5	0.6441	0.7633	-0.313
Mof_O 	O 	0.4363	0	0.11965	-0.626
Mof_C 	C 	0.3162	0	0.1286	-0.116
Mof_H 	H 	0.3081	-9.36537e-34	0.0984	0.07
Mof_C 	C 	0.2833	0	0.1604	0.114
Mof_C 	C 	0.2483	0	0.2291	-0.013
Mof_H 	H 	0.2213	0	0.2119	0.016
Mof_N 	N 	0.2367	1.87307e-33	0.1441	-0.376
Mof_O 	O 	0.4363	0.5	0.61965	-0.604
Mof_C 	C 	0.3162	0.5	0.6286	-0.109
Mof_H 	H 	0.3081	0.5	0.5984	0.084
Mof_C 	C 	0.2833	0.5	0.6604	0.116
Mof_C 	C 	0.2483	0.5	0.7291	-0.011
Mof_H 	H 	0.2213	0.5	0.7119	0.021
Mof_N 	N 	0.2367	0.5	0.6441	-0.31
Mof_O 	O 	0.9363	0	0.61965	-0.594
Mof_C 	C 	0.8162	0	0.6286	-0.125
Mof_H 	H 	0.8081	0	0.5984	0.079
Mof_C 	C 	0.7833	7.4923e-33	0.6604	0.125
Mof_C 	C 	0.7483	7.4923e-33	0.7291	-0.012
Mof_H 	H 	0.7213	0	0.7119	0.017
Mof_N 	N 	0.7367	7.4923e-33	0.6441	-0.38
Mof_O 	O 	0.9363	0.5	0.11965	-0.572
Mof_C 	C 	0.8162	0.5	0.1286	-0.111
Mof_H 	H 	0.8081	0.5	0.0984	0.082
Mof_C 	C 	0.7833	0.5	0.1604	0.118
Mof_C 	C 	0.7483	0.5	0.2291	-0.01
Mof_H 	H 	0.7213	0.5	0.2119	0.022
Mof_N 	N 	0.7367	0.5	0.1441	-0.309
Mof_O 	O 	0.5637	0	0.88035	-0.622
Mof_C 	C 	0.6838	0	0.8714	-0.127
Mof_H 	H 	0.6919	0	0.9016	0.092
Mof_C 	C 	0.7167	0	0.8396	0.133
Mof_C 	C 	0.7517	0	0.7709	-0.012
Mof_H 	H 	0.7787	7.4923e-33	0.7881	0.018
Mof_N 	N 	0.7633	7.4923e-33	0.8559	-0.385
Mof_O 	O 	0.5637	0.5	0.38035	-0.604
Mof_C 	C 	0.6838	0.5	0.3714	-0.11
Mof_H 	H 	0.6919	0.5	0.4016	0.085
Mof_C 	C 	0.7167	0.5	0.3396	0.119
Mof_C 	C 	0.7517	0.5	0.2709	-0.011
Mof_H 	H 	0.7787	0.5	0.2881	0.022
Mof_N 	N 	0.7633	0.5	0.3559	-0.313
Mof_O 	O 	0.0637	-3.74615e-33	0.38035	-0.631
Mof_C 	C 	0.1838	0	0.3714	-0.117
Mof_H 	H 	0.1919	0	0.4016	0.075
Mof_C 	C 	0.2167	0	0.3396	0.118
Mof_C 	C 	0.2517	0	0.2709	-0.014
Mof_H 	H 	0.2787	0	0.2881	0.017
Mof_N 	N 	0.2633	3.74615e-33	0.3559	-0.38
Mof_O 	O 	0.0637	0.5	0.88035	-0.606
Mof_C 	C 	0.1838	0.5	0.8714	-0.114
Mof_H 	H 	0.1919	0.5	0.9016	0.099
Mof_C 	C 	0.2167	0.5	0.8396	0.127
Mof_C 	C 	0.2517	0.5	0.7709	-0.01
Mof_H 	H 	0.2787	0.5	0.7881	0.023
Mof_N 	N 	0.2633	0.5	0.8559	-0.316
Mof_O 	O 	0.4363	0	0.88035	-0.622
Mof_C 	C 	0.3162	0	0.8714	-0.126
Mof_H 	H 	0.3081	0	0.9016	0.091
Mof_C 	C 	0.2833	0	0.8396	0.129
Mof_C 	C 	0.2483	0	0.7709	-0.012
Mof_H 	H 	0.2213	7.4923e-33	0.7881	0.018
Mof_N 	N 	0.2367	7.4923e-33	0.8559	-0.382
Mof_O 	O 	0.4363	0.5	0.38035	-0.604
Mof_C 	C 	0.3162	0.5	0.3714	-0.108
Mof_H 	H 	0.3081	0.5	0.4016	0.083
Mof_C 	C 	0.2833	0.5	0.3396	0.115
Mof_C 	C 	0.2483	0.5	0.2709	-0.011
Mof_H 	H 	0.2213	0.5	0.2881	0.022
Mof_N 	N 	0.2367	0.5	0.3559	-0.31
Mof_O 	O 	0.9363	-3.74615e-33	0.38035	-0.594
Mof_C 	C 	0.8162	0	0.3714	-0.124
Mof_H 	H 	0.8081	0	0.4016	0.078
Mof_C 	C 	0.7833	0	0.3396	0.124
Mof_C 	C 	0.7483	0	0.2709	-0.012
Mof_H 	H 	0.7213	0	0.2881	0.018
Mof_N 	N 	0.7367	3.74615e-33	0.3559	-0.38
Mof_O 	O 	0.9363	0.5	0.88035	-0.57
Mof_C 	C 	0.8162	0.5	0.8714	-0.121
Mof_H 	H 	0.8081	0.5	0.9016	0.102
Mof_C 	C 	0.7833	0.5	0.8396	0.133
Mof_C 	C 	0.7483	0.5	0.7709	-0.008
Mof_H 	H 	0.7213	0.5	0.7881	0.024
Mof_N 	N 	0.7367	0.5	0.8559	-0.317
Mof_O 	O 	0.5637	0	0.11965	-0.626
Mof_C 	C 	0.6838	0	0.1286	-0.117
Mof_H 	H 	0.6919	-9.36537e-34	0.0984	0.072
Mof_C 	C 	0.7167	0	0.1604	0.118
Mof_C 	C 	0.7517	0	0.2291	-0.013
Mof_H 	H 	0.7787	0	0.2119	0.016
Mof_N 	N 	0.7633	1.87307e-33	0.1441	-0.378
Mof_O 	O 	0.5637	0.5	0.61965	-0.604
Mof_C 	C 	0.6838	0.5	0.6286	-0.11
Mof_H 	H 	0.6919	0.5	0.5984	0.086
Mof_C 	C 	0.7167	0.5	0.6604	0.12
Mof_C 	C 	0.7517	0.5	0.7291	-0.011
Mof_H 	H 	0.7787	0.5	0.7119	0.02
Mof_N 	N 	0.7633	0.5	0.6441	-0.313
Mof_O 	O 	0.0637	0	0.61965	-0.631
Mof_C 	C 	0.1838	0	0.6286	-0.118
Mof_H 	H 	0.1919	0	0.5984	0.075
Mof_C 	C 	0.2167	7.4923e-33	0.6604	0.119
Mof_C 	C 	0.2517	7.4923e-33	0.7291	-0.013
Mof_H 	H 	0.2787	0	0.7119	0.016
Mof_N 	N 	0.2633	7.4923e-33	0.6441	-0.379
Mof_O 	O 	0.0637	0.5	0.11965	-0.609
Mof_C 	C 	0.1838	0.5	0.1286	-0.104
Mof_H 	H 	0.1919	0.5	0.0984	0.079
Mof_C 	C 	0.2167	0.5	0.1604	0.111
Mof_C 	C 	0.2517	0.5	0.2291	-0.012
Mof_H 	H 	0.2787	0.5	0.2119	0.021
Mof_N 	N 	0.2633	0.5	0.1441	-0.308
Mof_O 	O 	0.4363	0.11965	-0	-0.626
Mof_C 	C 	0.3162	0.1286	-0	-0.116
Mof_H 	H 	0.3081	0.0984	-0	0.07
Mof_C 	C 	0.2833	0.1604	-0	0.114
Mof_C 	C 	0.2483	0.2291	-0	-0.013
Mof_H 	H 	0.2213	0.2119	-0	0.016
Mof_N 	N 	0.2367	0.1441	-0	-0.376
Mof_O 	O 	0.4363	0.61965	0.5	-0.604
Mof_C 	C 	0.3162	0.6286	0.5	-0.109
Mof_H 	H 	0.3081	0.5984	0.5	0.084
Mof_C 	C 	0.2833	0.6604	0.5	0.116
Mof_C 	C 	0.2483	0.7291	0.5	-0.011
Mof_H 	H 	0.2213	0.7119	0.5	0.021
Mof_N 	N 	0.2367	0.6441	0.5	-0.31
Mof_O 	O 	0.9363	0.11965	0.5	-0.572
Mof_C 	C 	0.8162	0.1286	0.5	-0.111
Mof_H 	H 	0.8081	0.0984	0.5	0.082
Mof_C 	C 	0.7833	0.1604	0.5	0.118
Mof_C 	C 	0.7483	0.2291	0.5	-0.01
Mof_H 	H 	0.7213	0.2119	0.5	0.022
Mof_N 	N 	0.7367	0.1441	0.5	-0.309
Mof_O 	O 	0.9363	0.61965	-0	-0.594
Mof_C 	C 	0.8162	0.6286	-0	-0.125
Mof_H 	H 	0.8081	0.5984	-0	0.079
Mof_C 	C 	0.7833	0.6604	-0	0.125
Mof_C 	C 	0.7483	0.7291	-0	-0.012
Mof_H 	H 	0.7213	0.7119	-0	0.017
Mof_N 	N 	0.7367	0.6441	-0	-0.38
Mof_O 	O 	0.5637	0.88035	-0	-0.622
Mof_C 	C 	0.6838	0.8714	-0	-0.127
Mof_H 	H 	0.6919	0.9016	-0	0.092
Mof_C 	C 	0.7167	0.8396	-0	0.133
Mof_C 	C 	0.7517	0.7709	-0	-0.012
Mof_H 	H 	0.7787	0.7881	-0	0.018
Mof_N 	N 	0.7633	0.8559	-0	-0.385
Mof_O 	O 	0.5637	0.38035	0.5	-0.604
Mof_C 	C 	0.6838	0.3714	0.5	-0.11
Mof_H 	H 	0.6919	0.4016	0.5	0.085
Mof_C 	C 	0.7167	0.3396	0.5	0.119
Mof_C 	C 	0.7517	0.2709	0.5	-0.011
Mof_H 	H 	0.7787	0.2881	0.5	0.022
Mof_N 	N 	0.7633	0.3559	0.5	-0.313
Mof_O 	O 	0.0637	0.88035	0.5	-0.606
Mof_C 	C 	0.1838	0.8714	0.5	-0.114
Mof_H 	H 	0.1919	0.9016	0.5	0.099
Mof_C 	C 	0.2167	0.8396	0.5	0.127
Mof_C 	C 	0.2517	0.7709	0.5	-0.01
Mof_H 	H 	0.2787	0.7881	0.5	0.023
Mof_N 	N 	0.2633	0.8559	0.5	-0.316
Mof_O 	O 	0.0637	0.38035	-0	-0.631
Mof_C 	C 	0.1838	0.3714	-0	-0.117
Mof_H 	H 	0.1919	0.4016	-0	0.075
Mof_C 	C 	0.2167	0.3396	-0	0.118
Mof_C 	C 	0.2517	0.2709	-0	-0.014
Mof_H 	H 	0.2787	0.2881	-0	0.017
Mof_N 	N 	0.2633	0.3559	-0	-0.38
Mof_O 	O 	0.4363	0.88035	-0	-0.622
Mof_C 	C 	0.3162	0.8714	-0	-0.126
Mof_H 	H 	0.3081	0.9016	-0	0.091
Mof_C 	C 	0.2833	0.8396	-0	0.129
Mof_C 	C 	0.2483	0.7709	-0	-0.012
Mof_H 	H 	0.2213	0.7881	-0	0.018
Mof_N 	N 	0.2367	0.8559	-0	-0.382
Mof_O 	O 	0.4363	0.38035	0.5	-0.604
Mof_C 	C 	0.3162	0.3714	0.5	-0.108
Mof_H 	H 	0.3081	0.4016	0.5	0.083
Mof_C 	C 	0.2833	0.3396	0.5	0.115
Mof_C 	C 	0.2483	0.2709	0.5	-0.011
Mof_H 	H 	0.2213	0.2881	0.5	0.022
Mof_N 	N 	0.2367	0.3559	0.5	-0.31
Mof_O 	O 	0.9363	0.88035	0.5	-0.57
Mof_C 	C 	0.8162	0.8714	0.5	-0.121
Mof_H 	H 	0.8081	0.9016	0.5	0.102
Mof_C 	C 	0.7833	0.8396	0.5	0.133
Mof_C 	C 	0.7483	0.7709	0.5	-0.008
Mof_H 	H 	0.7213	0.7881	0.5	0.024
Mof_N 	N 	0.7367	0.8559	0.5	-0.317
Mof_O 	O 	0.9363	0.38035	-0	-0.594
Mof_C 	C 	0.8162	0.3714	-0	-0.124
Mof_H 	H 	0.8081	0.4016	-0	0.078
Mof_C 	C 	0.7833	0.3396	-0	0.124
Mof_C 	C 	0.7483	0.2709	-0	-0.012
Mof_H 	H 	0.7213	0.2881	-0	0.018
Mof_N 	N 	0.7367	0.3559	-0	-0.38
Mof_O 	O 	0.5637	0.11965	-0	-0.626
Mof_C 	C 	0.6838	0.1286	-0	-0.117
Mof_H 	H 	0.6919	0.0984	-0	0.072
Mof_C 	C 	0.7167	0.1604	-0	0.118
Mof_C 	C 	0.7517	0.2291	-0	-0.013
Mof_H 	H 	0.7787	0.2119	-0	0.016
Mof_N 	N 	0.7633	0.1441	-0	-0.378
Mof_O 	O 	0.5637	0.61965	0.5	-0.604
Mof_C 	C 	0.6838	0.6286	0.5	-0.11
Mof_H 	H 	0.6919	0.5984	0.5	0.086
Mof_C 	C 	0.7167	0.6604	0.5	0.12
Mof_C 	C 	0.7517	0.7291	0.5	-0.011
Mof_H 	H 	0.7787	0.7119	0.5	0.02
Mof_N 	N 	0.7633	0.6441	0.5	-0.313
Mof_O 	O 	0.0637	0.11965	0.5	-0.609
Mof_C 	C 	0.1838	0.1286	0.5	-0.104
Mof_H 	H 	0.1919	0.0984	0.5	0.079
Mof_C 	C 	0.2167	0.1604	0.5	0.111
Mof_C 	C 	0.2517	0.2291	0.5	-0.012
Mof_H 	H 	0.2787	0.2119	0.5	0.021
Mof_N 	N 	0.2633	0.1441	0.5	-0.308
Mof_O 	O 	0.0637	0.61965	-0	-0.631
Mof_C 	C 	0.1838	0.6286	-0	-0.118
Mof_H 	H 	0.1919	0.5984	-0	0.075
Mof_C 	C 	0.2167	0.6604	-0	0.119
Mof_C 	C 	0.2517	0.7291	-0	-0.013
Mof_H 	H 	0.2787	0.7119	-0	0.016
Mof_N 	N 	0.2633	0.6441	-0	-0.379
Mof_O 	O 	0.11965	7.4923e-33	0.5637	-0.626
Mof_C 	C 	0.1286	7.4923e-33	0.6838	-0.117
Mof_H 	H 	0.0984	-7.4923e-33	0.6919	0.072
Mof_C 	C 	0.1604	0	0.7167	0.118
Mof_C 	C 	0.2291	0	0.7517	-0.013
Mof_H 	H 	0.2119	0	0.7787	0.016
Mof_N 	N 	0.1441	0	0.7633	-0.378
Mof_O 	O 	0.11965	0.5	0.0637	-0.609
Mof_C 	C 	0.1286	0.5	0.1838	-0.104
Mof_H 	H 	0.0984	0.5	0.1919	0.079
Mof_C 	C 	0.1604	0.5	0.2167	0.111
Mof_C 	C 	0.2291	0.5	0.2517	-0.012
Mof_H 	H 	0.2119	0.5	0.2787	0.021
Mof_N 	N 	0.1441	0.5	0.2633	-0.308
Mof_O 	O 	0.61965	0	0.0637	-0.631
Mof_C 	C 	0.6286	0	0.1838	-0.118
Mof_H 	H 	0.5984	0	0.1919	0.075
Mof_C 	C 	0.6604	1.87307e-33	0.2167	0.119
Mof_C 	C 	0.7291	1.87307e-33	0.2517	-0.013
Mof_H 	H 	0.7119	0	0.2787	0.016
Mof_N 	N 	0.6441	1.87307e-33	0.2633	-0.379
Mof_O 	O 	0.61965	0.5	0.5637	-0.604
Mof_C 	C 	0.6286	0.5	0.6838	-0.11
Mof_H 	H 	0.5984	0.5	0.6919	0.086
Mof_C 	C 	0.6604	0.5	0.7167	0.12
Mof_C 	C 	0.7291	0.5	0.7517	-0.011
Mof_H 	H 	0.7119	0.5	0.7787	0.02
Mof_N 	N 	0.6441	0.5	0.7633	-0.313
Mof_O 	O 	0.88035	3.74615e-33	0.4363	-0.622
Mof_C 	C 	0.8714	3.74615e-33	0.3162	-0.126
Mof_H 	H 	0.9016	0	0.3081	0.091
Mof_C 	C 	0.8396	3.74615e-33	0.2833	0.129
Mof_C 	C 	0.7709	0	0.2483	-0.012
Mof_H 	H 	0.7881	0	0.2213	0.018
Mof_N 	N 	0.8559	0	0.2367	-0.382
Mof_O 	O 	0.88035	0.5	0.9363	-0.57
Mof_C 	C 	0.8714	0.5	0.8162	-0.121
Mof_H 	H 	0.9016	0.5	0.8081	0.102
Mof_C 	C 	0.8396	0.5	0.7833	0.133
Mof_C 	C 	0.7709	0.5	0.7483	-0.008
Mof_H 	H 	0.7881	0.5	0.7213	0.024
Mof_N 	N 	0.8559	0.5	0.7367	-0.317
Mof_O 	O 	0.38035	0	0.9363	-0.594
Mof_C 	C 	0.3714	0	0.8162	-0.124
Mof_H 	H 	0.4016	0	0.8081	0.078
Mof_C 	C 	0.3396	0	0.7833	0.124
Mof_C 	C 	0.2709	7.4923e-33	0.7483	-0.012
Mof_H 	H 	0.2881	7.4923e-33	0.7213	0.018
Mof_N 	N 	0.3559	7.4923e-33	0.7367	-0.38
Mof_O 	O 	0.38035	0.5	0.4363	-0.604
Mof_C 	C 	0.3714	0.5	0.3162	-0.108
Mof_H 	H 	0.4016	0.5	0.3081	0.083
Mof_C 	C 	0.3396	0.5	0.2833	0.115
Mof_C 	C 	0.2709	0.5	0.2483	-0.011
Mof_H 	H 	0.2881	0.5	0.2213	0.022
Mof_N 	N 	0.3559	0.5	0.2367	-0.31
Mof_O 	O 	0.88035	7.4923e-33	0.5637	-0.622
Mof_C 	C 	0.8714	7.4923e-33	0.6838	-0.127
Mof_H 	H 	0.9016	-7.4923e-33	0.6919	0.092
Mof_C 	C 	0.8396	0	0.7167	0.133
Mof_C 	C 	0.7709	0	0.7517	-0.012
Mof_H 	H 	0.7881	0	0.7787	0.018
Mof_N 	N 	0.8559	0	0.7633	-0.385
Mof_O 	O 	0.88035	0.5	0.0637	-0.606
Mof_C 	C 	0.8714	0.5	0.1838	-0.114
Mof_H 	H 	0.9016	0.5	0.1919	0.099
Mof_C 	C 	0.8396	0.5	0.2167	0.127
Mof_C 	C 	0.7709	0.5	0.2517	-0.01
Mof_H 	H 	0.7881	0.5	0.2787	0.023
Mof_N 	N 	0.8559	0.5	0.2633	-0.316
Mof_O 	O 	0.38035	0	0.0637	-0.631
Mof_C 	C 	0.3714	0	0.1838	-0.117
Mof_H 	H 	0.4016	0	0.1919	0.075
Mof_C 	C 	0.3396	1.87307e-33	0.2167	0.118
Mof_C 	C 	0.2709	1.87307e-33	0.2517	-0.014
Mof_H 	H 	0.2881	0	0.2787	0.017
Mof_N 	N 	0.3559	1.87307e-33	0.2633	-0.38
Mof_O 	O 	0.38035	0.5	0.5637	-0.604
Mof_C 	C 	0.3714	0.5	0.6838	-0.11
Mof_H 	H 	0.4016	0.5	0.6919	0.085
Mof_C 	C 	0.3396	0.5	0.7167	0.119
Mof_C 	C 	0.2709	0.5	0.7517	-0.011
Mof_H 	H 	0.2881	0.5	0.7787	0.022
Mof_N 	N 	0.3559	0.5	0.7633	-0.313
Mof_O 	O 	0.11965	3.74615e-33	0.4363	-0.626
Mof_C 	C 	0.1286	3.74615e-33	0.3162	-0.116
Mof_H 	H 	0.0984	0	0.3081	0.07
Mof_C 	C 	0.1604	3.74615e-33	0.2833	0.114
Mof_C 	C 	0.2291	0	0.2483	-0.013
Mof_H 	H 	0.2119	0	0.2213	0.016
Mof_N 	N 	0.1441	0	0.2367	-0.376
Mof_O 	O 	0.11965	0.5	0.9363	-0.572
Mof_C 	C 	0.1286	0.5	0.8162	-0.111
Mof_H 	H 	0.0984	0.5	0.8081	0.082
Mof_C 	C 	0.1604	0.5	0.7833	0.118
Mof_C 	C 	0.2291	0.5	0.7483	-0.01
Mof_H 	H 	0.2119	0.5	0.7213	0.022
Mof_N 	N 	0.1441	0.5	0.7367	-0.309
Mof_O 	O 	0.61965	0	0.9363	-0.594
Mof_C 	C 	0.6286	0	0.8162	-0.125
Mof_H 	H 	0.5984	0	0.8081	0.079
Mof_C 	C 	0.6604	0	0.7833	0.125
Mof_C 	C 	0.7291	7.4923e-33	0.7483	-0.012
Mof_H 	H 	0.7119	7.4923e-33	0.7213	0.017
Mof_N 	N 	0.6441	7.4923e-33	0.7367	-0.38
Mof_O 	O 	0.61965	0.5	0.4363	-0.604
Mof_C 	C 	0.6286	0.5	0.3162	-0.109
Mof_H 	H 	0.5984	0.5	0.3081	0.084
Mof_C 	C 	0.6604	0.5	0.2833	0.116
Mof_C 	C 	0.7291	0.5	0.2483	-0.011
Mof_H 	H 	0.7119	0.5	0.2213	0.021
Mof_N 	N 	0.6441	0.5	0.2367	-0.31
Mof_O 	O 	1.07931e-32	0.4363	0.88035	-0.622
Mof_C 	C 	1.07595e-32	0.3162	0.8714	-0.126
Mof_H 	H 	3.38046e-33	0.3081	0.9016	0.091
Mof_C 	C 	1.06403e-32	0.2833	0.8396	0.129
Mof_C 	C 	-4.60189e-33	0.2483	0.7709	-0.012
Mof_H 	H 	2.9549e-33	0.2213	0.7881	0.018
Mof_N 	N 	3.20911e-33	0.2367	0.8559	-0.382
Mof_O 	O 	1.42608e-33	0.9363	0.38035	-0.594
Mof_C 	C 	8.88483e-33	0.8162	0.3714	-0.124
Mof_H 	H 	1.50576e-33	0.8081	0.4016	0.078
Mof_C 	C 	1.2733e-33	0.7833	0.3396	0.124
Mof_C 	C 	8.50801e-33	0.7483	0.2709	-0.012
Mof_H 	H 	4.82635e-33	0.7213	0.2881	0.018
Mof_N 	N 	1.25729e-32	0.7367	0.3559	-0.38
Mof_O 	O 	0.5	0.4363	0.38035	-0.604
Mof_C 	C 	0.5	0.3162	0.3714	-0.108
Mof_H 	H 	0.5	0.3081	0.4016	0.083
Mof_C 	C 	0.5	0.2833	0.3396	0.115
Mof_C 	C 	0.5	0.2483	0.2709	-0.011
Mof_H 	H 	0.5	0.2213	0.2881	0.022
Mof_N 	N 	0.5	0.2367	0.3559	-0.31
Mof_O 	O 	0.5	0.9363	0.88035	-0.57
Mof_C 	C 	0.5	0.8162	0.8714	-0.121
Mof_H 	H 	0.5	0.8081	0.9016	0.102
Mof_C 	C 	0.5	0.7833	0.8396	0.133
Mof_C 	C 	0.5	0.7483	0.7709	-0.008
Mof_H 	H 	0.5	0.7213	0.7881	0.024
Mof_N 	N 	0.5	0.7367	0.8559	-0.317
Mof_O 	O 	1.07505e-32	0.5637	0.11965	-0.626
Mof_C 	C 	9.84755e-33	0.6838	0.1286	-0.117
Mof_H 	H 	-5.67597e-34	0.6919	0.0984	0.072
Mof_C 	C 	-6.8909e-33	0.7167	0.1604	0.118
Mof_C 	C 	2.73206e-33	0.7517	0.2291	-0.013
Mof_H 	H 	-6.6978e-33	0.7787	0.2119	0.016
Mof_N 	N 	-1.33279e-33	0.7633	0.1441	-0.378
Mof_O 	O 	2.32332e-33	0.0637	0.61965	-0.631
Mof_C 	C 	2.35687e-33	0.1838	0.6286	-0.118
Mof_H 	H 	-5.24866e-33	0.1919	0.5984	0.075
Mof_C 	C 	2.4761e-33	0.2167	0.6604	0.119
Mof_C 	C 	1.0226e-32	0.2517	0.7291	-0.013
Mof_H 	H 	-1.23154e-32	0.2787	0.7119	0.016
Mof_N 	N 	9.90729e-33	0.2633	0.6441	-0.379
Mof_O 	O 	0.5	0.5637	0.61965	-0.604
Mof_C 	C 	0.5	0.6838	0.6286	-0.11
Mof_H 	H 	0.5	0.6919	0.5984	0.086
Mof_C 	C 	0.5	0.7167	0.6604	0.12
Mof_C 	C 	0.5	0.7517	0.7291	-0.011
Mof_H 	H 	0.5	0.7787	0.7119	0.02
Mof_N 	N 	0.5	0.7633	0.6441	-0.313
Mof_O 	O 	0.5	0.0637	0.11965	-0.609
Mof_C 	C 	0.5	0.1838	0.1286	-0.104
Mof_H 	H 	0.5	0.1919	0.0984	0.079
Mof_C 	C 	0.5	0.2167	0.1604	0.111
Mof_C 	C 	0.5	0.2517	0.2291	-0.012
Mof_H 	H 	0.5	0.2787	0.2119	0.021
Mof_N 	N 	0.5	0.2633	0.1441	-0.308
Mof_O 	O 	-4.87922e-34	0.4363	0.11965	-0.626
Mof_C 	C 	6.1014e-33	0.3162	0.1286	-0.116
Mof_H 	H 	-5.67597e-34	0.3081	0.0984	0.07
Mof_C 	C 	4.34755e-33	0.2833	0.1604	0.114
Mof_C 	C 	8.58987e-34	0.2483	0.2291	-0.013
Mof_H 	H 	7.94498e-34	0.2213	0.2119	0.016
Mof_N 	N 	2.41336e-33	0.2367	0.1441	-0.376
Mof_O 	O 	9.81562e-33	0.9363	0.61965	-0.594
Mof_C 	C 	9.84917e-33	0.8162	0.6286	-0.125
Mof_H 	H 	-5.24866e-33	0.8081	0.5984	0.079
Mof_C 	C 	1.74607e-32	0.7833	0.6604	0.125
Mof_C 	C 	1.0226e-32	0.7483	0.7291	-0.012
Mof_H 	H 	2.6692e-33	0.7213	0.7119	0.017
Mof_N 	N 	9.90729e-33	0.7367	0.6441	-0.38
Mof_O 	O 	0.5	0.4363	0.61965	-0.604
Mof_C 	C 	0.5	0.3162	0.6286	-0.109
Mof_H 	H 	0.5	0.3081	0.5984	0.084
Mof_C 	C 	0.5	0.2833	0.6604	0.116
Mof_C 	C 	0.5	0.2483	0.7291	-0.011
Mof_H 	H 	0.5	0.2213	0.7119	0.021
Mof_N 	N 	0.5	0.2367	0.6441	-0.31
Mof_O 	O 	0.5	0.9363	0.11965	-0.572
Mof_C 	C 	0.5	0.8162	0.1286	-0.111
Mof_H 	H 	0.5	0.8081	0.0984	0.082
Mof_C 	C 	0.5	0.7833	0.1604	0.118
Mof_C 	C 	0.5	0.7483	0.2291	-0.01
Mof_H 	H 	0.5	0.7213	0.2119	0.022
Mof_N 	N 	0.5	0.7367	0.1441	-0.309
Mof_O 	O 	2.57777e-32	0.5637	0.88035	-0.622
Mof_C 	C 	1.82518e-32	0.6838	0.8714	-0.127
Mof_H 	H 	-4.11184e-33	0.6919	0.9016	0.092
Mof_C 	C 	1.06403e-32	0.7167	0.8396	0.133
Mof_C 	C 	2.89041e-33	0.7517	0.7709	-0.012
Mof_H 	H 	2.9549e-33	0.7787	0.7881	0.018
Mof_N 	N 	3.20911e-33	0.7633	0.8559	-0.385
Mof_O 	O 	-2.32007e-33	0.0637	0.38035	-0.631
Mof_C 	C 	1.39253e-33	0.1838	0.3714	-0.117
Mof_H 	H 	1.50576e-33	0.1919	0.4016	0.075
Mof_C 	C 	1.2733e-33	0.2167	0.3396	0.118
Mof_C 	C 	2.88879e-33	0.2517	0.2709	-0.014
Mof_H 	H 	-2.66595e-33	0.2787	0.2881	0.017
Mof_N 	N 	5.08056e-33	0.2633	0.3559	-0.38
Mof_O 	O 	0.5	0.5637	0.38035	-0.604
Mof_C 	C 	0.5	0.6838	0.3714	-0.11
Mof_H 	H 	0.5	0.6919	0.4016	0.085
Mof_C 	C 	0.5	0.7167	0.3396	0.119
Mof_C 	C 	0.5	0.7517	0.2709	-0.011
Mof_H 	H 	0.5	0.7787	0.2881	0.022
Mof_N 	N 	0.5	0.7633	0.3559	-0.313
Mof_O 	O 	0.5	0.0637	0.88035	-0.606
Mof_C 	C 	0.5	0.1838	0.8714	-0.114
Mof_H 	H 	0.5	0.1919	0.9016	0.099
Mof_C 	C 	0.5	0.2167	0.8396	0.127
Mof_C 	C 	0.5	0.2517	0.7709	-0.01
Mof_H 	H 	0.5	0.2787	0.7881	0.023
Mof_N 	N 	0.5	0.2633	0.8559	-0.316
Mof_O 	O 	0.04082	0.45918	0.04082	-1.277
Mof_O 	O 	0.95918	0.54082	0.04082	-1.23
Mof_O 	O 	0.45918	0.04082	0.04082	-1.277
Mof_O 	O 	0.95918	0.45918	0.95918	-1.185
Mof_O 	O 	0.45918	0.45918	0.45918	-1.25
Mof_O 	O 	0.04082	0.54082	0.95918	-1.23
Mof_O 	O 	0.04082	0.04082	0.45918	-1.277
Mof_O 	O 	0.04082	0.95918	0.54082	-1.23
Mof_O 	O 	0.95918	0.95918	0.45918	-1.185
Mof_O 	O 	0.95918	0.04082	0.54082	-1.23
Mof_O 	O 	0.45918	0.54082	0.54082	-1.25
Mof_O 	O 	0.54082	0.04082	0.95918	-1.23
Mof_O 	O 	0.54082	0.54082	0.45918	-1.25
Mof_O 	O 	0.45918	0.95918	0.95918	-1.185
Mof_O 	O 	0.54082	0.95918	0.04082	-1.23
Mof_O 	O 	0.54082	0.45918	0.54082	-1.25
Mof_O 	O 	0.45918	0.04082	0.95918	-1.23
Mof_O 	O 	0.45918	0.54082	0.45918	-1.25
Mof_O 	O 	0.54082	0.95918	0.95918	-1.185
Mof_O 	O 	0.54082	0.45918	0.45918	-1.25
Mof_O 	O 	0.04082	0.95918	0.45918	-1.23
Mof_O 	O 	0.04082	0.45918	0.95918	-1.23
Mof_O 	O 	0.45918	0.95918	0.04082	-1.23
Mof_O 	O 	0.45918	0.45918	0.54082	-1.25
Mof_O 	O 	0.54082	0.04082	0.04082	-1.277
Mof_O 	O 	0.54082	0.54082	0.54082	-1.25
Mof_O 	O 	0.04082	0.04082	0.54082	-1.277
Mof_O 	O 	0.95918	0.04082	0.45918	-1.23
Mof_O 	O 	0.95918	0.95918	0.54082	-1.185
Mof_O 	O 	0.95918	0.45918	0.04082	-1.23
Mof_O 	O 	0.04082	0.54082	0.04082	-1.277
Mof_O 	O 	0.95918	0.54082	0.95918	-1.185
Mof_C 	C 	0.10515	0.39485	-0	0.398
Mof_C 	C 	0.1397	0.3603	-0	-0.031
Mof_C 	C 	0.2049	0.2951	-0	-0.096
Mof_C 	C 	0.10515	0.89485	0.5	0.399
Mof_C 	C 	0.1397	0.8603	0.5	-0.012
Mof_C 	C 	0.2049	0.7951	0.5	-0.085
Mof_C 	C 	0.89485	0.60515	-0	0.392
Mof_C 	C 	0.8603	0.6397	-0	-0.013
Mof_C 	C 	0.7951	0.7049	-0	-0.1
Mof_C 	C 	0.89485	0.10515	0.5	0.399
Mof_C 	C 	0.8603	0.1397	0.5	-0.012
Mof_C 	C 	0.7951	0.2049	0.5	-0.085
Mof_C 	C 	0.39485	0.10515	-0	0.398
Mof_C 	C 	0.3603	0.1397	-0	-0.031
Mof_C 	C 	0.2951	0.2049	-0	-0.096
Mof_C 	C 	0.89485	0.39485	-0	0.392
Mof_C 	C 	0.8603	0.3603	-0	-0.015
Mof_C 	C 	0.7951	0.2951	-0	-0.101
Mof_C 	C 	0.89485	0.89485	0.5	0.393
Mof_C 	C 	0.8603	0.8603	0.5	0.003
Mof_C 	C 	0.7951	0.7951	0.5	-0.09
Mof_C 	C 	0.39485	0.39485	0.5	0.4
Mof_C 	C 	0.3603	0.3603	0.5	-0.024
Mof_C 	C 	0.2951	0.2951	0.5	-0.083
Mof_C 	C 	0.10515	0.60515	-0	0.398
Mof_C 	C 	0.1397	0.6397	-0	-0.029
Mof_C 	C 	0.2049	0.7049	-0	-0.096
Mof_C 	C 	0.10515	0.10515	0.5	0.405
Mof_C 	C 	0.1397	0.1397	0.5	-0.029
Mof_C 	C 	0.2049	0.2049	0.5	-0.081
Mof_C 	C 	1.48045e-33	0.10515	0.39485	0.398
Mof_C 	C 	1.35091e-33	0.1397	0.3603	-0.031
Mof_C 	C 	1.10645e-33	0.2049	0.2951	-0.096
Mof_C 	C 	0.5	0.10515	0.89485	0.399
Mof_C 	C 	0.5	0.1397	0.8603	-0.012
Mof_C 	C 	0.5	0.2049	0.7951	-0.085
Mof_C 	C 	9.76125e-33	0.89485	0.60515	0.392
Mof_C 	C 	2.39849e-33	0.8603	0.6397	-0.013
Mof_C 	C 	2.64295e-33	0.7951	0.7049	-0.1
Mof_C 	C 	3.94249e-34	0.39485	0.10515	0.398
Mof_C 	C 	5.23791e-34	0.3603	0.1397	-0.031
Mof_C 	C 	7.68252e-34	0.2951	0.2049	-0.096
Mof_C 	C 	0.5	0.89485	0.10515	0.399
Mof_C 	C 	0.5	0.8603	0.1397	-0.012
Mof_C 	C 	0.5	0.7951	0.2049	-0.085
Mof_C 	C 	1.48045e-33	0.89485	0.39485	0.392
Mof_C 	C 	8.84321e-33	0.8603	0.3603	-0.015
Mof_C 	C 	1.10645e-33	0.7951	0.2951	-0.101
Mof_C 	C 	0.5	0.89485	0.89485	0.393
Mof_C 	C 	0.5	0.8603	0.8603	0.003
Mof_C 	C 	0.5	0.7951	0.7951	-0.09
Mof_C 	C 	0.5	0.39485	0.39485	0.4
Mof_C 	C 	0.5	0.3603	0.3603	-0.024
Mof_C 	C 	0.5	0.2951	0.2951	-0.083
Mof_C 	C 	2.26895e-33	0.10515	0.60515	0.398
Mof_C 	C 	2.39849e-33	0.1397	0.6397	-0.029
Mof_C 	C 	2.64295e-33	0.2049	0.7049	-0.096
Mof_C 	C 	0.5	0.10515	0.10515	0.405
Mof_C 	C 	0.5	0.1397	0.1397	-0.029
Mof_C 	C 	0.5	0.2049	0.2049	-0.081
Mof_C 	C 	0.39485	9.36537e-34	0.10515	0.398
Mof_C 	C 	0.3603	1.87307e-33	0.1397	-0.031
Mof_C 	C 	0.2951	1.87307e-33	0.2049	-0.096
Mof_C 	C 	0.39485	0.5	0.60515	0.4
Mof_C 	C 	0.3603	0.5	0.6397	-0.022
Mof_C 	C 	0.2951	0.5	0.7049	-0.083
Mof_C 	C 	0.60515	7.4923e-33	0.89485	0.392
Mof_C 	C 	0.6397	0	0.8603	-0.013
Mof_C 	C 	0.7049	0	0.7951	-0.1
Mof_C 	C 	0.60515	0.5	0.39485	0.4
Mof_C 	C 	0.6397	0.5	0.3603	-0.022
Mof_C 	C 	0.7049	0.5	0.2951	-0.083
Mof_C 	C 	0.10515	0	0.39485	0.398
Mof_C 	C 	0.1397	0	0.3603	-0.031
Mof_C 	C 	0.2049	0	0.2951	-0.096
Mof_C 	C 	0.39485	7.4923e-33	0.89485	0.392
Mof_C 	C 	0.3603	0	0.8603	-0.015
Mof_C 	C 	0.2951	0	0.7951	-0.101
Mof_C 	C 	0.39485	0.5	0.39485	0.4
Mof_C 	C 	0.3603	0.5	0.3603	-0.024
Mof_C 	C 	0.2951	0.5	0.2951	-0.083
Mof_C 	C 	0.60515	9.36537e-34	0.10515	0.398
Mof_C 	C 	0.6397	1.87307e-33	0.1397	-0.029
Mof_C 	C 	0.7049	1.87307e-33	0.2049	-0.096
Mof_C 	C 	0.60515	0.5	0.60515	0.4
Mof_C 	C 	0.6397	0.5	0.6397	-0.021
Mof_C 	C 	0.7049	0.5	0.7049	-0.083
Mof_C 	C 	0.10515	0.5	0.10515	0.405
Mof_C 	C 	0.1397	0.5	0.1397	-0.029
Mof_C 	C 	0.2049	0.5	0.2049	-0.081
Mof_C 	C 	0.39485	0.60515	0.5	0.4
Mof_C 	C 	0.3603	0.6397	0.5	-0.022
Mof_C 	C 	0.2951	0.7049	0.5	-0.083
Mof_C 	C 	0.60515	0.89485	-0	0.392
Mof_C 	C 	0.6397	0.8603	-0	-0.013
Mof_C 	C 	0.7049	0.7951	-0	-0.1
Mof_C 	C 	0.60515	0.39485	0.5	0.4
Mof_C 	C 	0.6397	0.3603	0.5	-0.022
Mof_C 	C 	0.7049	0.2951	0.5	-0.083
Mof_C 	C 	0.39485	0.89485	-0	0.392
Mof_C 	C 	0.3603	0.8603	-0	-0.015
Mof_C 	C 	0.2951	0.7951	-0	-0.101
Mof_C 	C 	0.60515	0.10515	-0	0.398
Mof_C 	C 	0.6397	0.1397	-0	-0.029
Mof_C 	C 	0.7049	0.2049	-0	-0.096
Mof_C 	C 	0.60515	0.60515	0.5	0.4
Mof_C 	C 	0.6397	0.6397	0.5	-0.021
Mof_C 	C 	0.7049	0.7049	0.5	-0.083
Mof_C 	C 	0.10515	7.4923e-33	0.60515	0.398
Mof_C 	C 	0.1397	0	0.6397	-0.029
Mof_C 	C 	0.2049	0	0.7049	-0.096
Mof_C 	C 	0.89485	0	0.39485	0.392
Mof_C 	C 	0.8603	0	0.3603	-0.015
Mof_C 	C 	0.7951	0	0.2951	-0.101
Mof_C 	C 	0.89485	0.5	0.89485	0.393
Mof_C 	C 	0.8603	0.5	0.8603	0.003
Mof_C 	C 	0.7951	0.5	0.7951	-0.09
Mof_C 	C 	0.89485	7.4923e-33	0.60515	0.392
Mof_C 	C 	0.8603	0	0.6397	-0.013
Mof_C 	C 	0.7951	0	0.7049	-0.1
Mof_C 	C 	0.89485	0.5	0.10515	0.399
Mof_C 	C 	0.8603	0.5	0.1397	-0.012
Mof_C 	C 	0.7951	0.5	0.2049	-0.085
Mof_C 	C 	0.10515	0.5	0.89485	0.399
Mof_C 	C 	0.1397	0.5	0.8603	-0.012
Mof_C 	C 	0.2049	0.5	0.7951	-0.085
Mof_C 	C 	3.35515e-33	0.39485	0.89485	0.392
Mof_C 	C 	1.07179e-32	0.3603	0.8603	-0.015
Mof_C 	C 	-4.51115e-33	0.2951	0.7951	-0.101
Mof_C 	C 	4.1404e-33	0.60515	0.10515	0.398
Mof_C 	C 	5.23791e-34	0.6397	0.1397	-0.029
Mof_C 	C 	4.5144e-33	0.7049	0.2049	-0.096
Mof_C 	C 	0.5	0.60515	0.60515	0.4
Mof_C 	C 	0.5	0.6397	0.6397	-0.021
Mof_C 	C 	0.5	0.7049	0.7049	-0.083
Mof_C 	C 	0.5	0.39485	0.60515	0.4
Mof_C 	C 	0.5	0.3603	0.6397	-0.022
Mof_C 	C 	0.5	0.2951	0.7049	-0.083
Mof_C 	C 	1.08474e-32	0.60515	0.89485	0.392
Mof_C 	C 	3.22561e-33	0.6397	0.8603	-0.013
Mof_C 	C 	2.98115e-33	0.7049	0.7951	-0.1
Mof_C 	C 	0.5	0.60515	0.39485	0.4
Mof_C 	C 	0.5	0.6397	0.3603	-0.022
Mof_C 	C 	0.5	0.7049	0.2951	-0.083
_end
