data_functionalizedCrystal
_audit_creation_method	'EQeq! by Chris Wilmer'
_symmetry_space_group_name_H-M	'P1'
_symmetry_Int_Tables_number	1
_symmetry_cell_setting	triclinic
loop_
_symmetry_equiv_pos_as_xyz
  x,y,z
_cell_length_a	14.521
_cell_length_b	7.7378
_cell_length_c	15.997
_cell_angle_alpha	90
_cell_angle_beta	106.4
_cell_angle_gamma	90
loop_
_atom_site_label
_atom_site_type_symbol
_atom_site_fract_x
_atom_site_fract_y
_atom_site_fract_z
_atom_site_charge
Mof_C 	C 	0.1133	0.3363	0.14228	0.33
Mof_C 	C 	0.1336	0.7211	0.89846	0.284
Mof_C 	C 	0.1054	0.3603	0.0464	-0.047
Mof_C 	C 	0.1261	0.5197	0.01698	-0.02
Mof_H 	H 	0.1483	0.6114	0.0571	0.066
Mof_C 	C 	0.1142	0.5454	0.92808	-0.033
Mof_C 	C 	0.0822	0.4109	0.87011	-0.102
Mof_H 	H 	0.0758	0.4271	0.8099	0.058
Mof_C 	C 	0.0594	0.2524	0.89971	0.075
Mof_C 	C 	0.0718	0.2252	0.98797	-0.074
Mof_H 	H 	0.0575	0.1159	0.0084	0.069
Mof_C 	C 	0.3091	0.2725	0.3348	-0.008
Mof_H 	H 	0.2896	0.2744	0.2729	0.014
Mof_C 	C 	0.3819	0.1626	0.3764	-0.057
Mof_H 	H 	0.4123	0.0901	0.3443	0.047
Mof_C 	C 	0.4097	0.1611	0.4674	0.04
Mof_C 	C 	0.3645	0.2683	0.5115	-0.073
Mof_H 	H 	0.383	0.2699	0.5734	0.056
Mof_C 	C 	0.2915	0.3745	0.4641	0.015
Mof_H 	H 	0.26	0.4475	0.4951	0.021
Mof_C 	C 	0.283	0.2208	0.3445	0.024
Mof_H 	H 	0.241	0.1828	0.2907	0.009
Mof_C 	C 	0.3586	0.1144	0.387	-0.045
Mof_H 	H 	0.3688	0.0056	0.3636	0.046
Mof_C 	C 	0.4187	0.1737	0.4654	0.045
Mof_C 	C 	0.4037	0.3297	0.4989	-0.038
Mof_H 	H 	0.4449	0.3697	0.5527	0.042
Mof_C 	C 	0.3265	0.4288	0.4522	-0.003
Mof_H 	H 	0.315	0.5381	0.4744	0.02
Mof_N 	N 	0.02763	0.1146	0.83717	-0.366
Mof_H 	H 	0.9871	0.1586	0.7867	0.123
Mof_H 	H 	0.9941	0.034	0.8592	0.133
Mof_N 	N 	0.2634	0.3794	0.3785	-0.093
Mof_N 	N 	0.4847	0.0529	0.5199	-0.054
Mof_N 	N 	0.2669	0.3722	0.3752	-0.122
Mof_N 	N 	0.5004	0.079	0.5178	-0.032
Mof_O 	O 	0.14381	0.4698	0.18959	-0.461
Mof_O 	O 	0.09187	0.197	0.16932	-0.317
Mof_O 	O 	0.15426	0.8421	0.95083	-0.344
Mof_O 	O 	0.12664	0.7429	0.81651	-0.438
Mof_Zn	Zn	0.14305	0.50231	0.30977	1.206
Mof_C 	C 	0.8867	0.8363	0.35772	0.327
Mof_C 	C 	0.8664	0.2211	0.60154	0.283
Mof_C 	C 	0.8946	0.8603	0.4536	-0.031
Mof_C 	C 	0.8739	0.0197	0.48302	-0.03
Mof_H 	H 	0.8517	0.1114	0.4429	0.069
Mof_C 	C 	0.8858	0.0454	0.57192	-0.033
Mof_C 	C 	0.9178	0.9109	0.62989	-0.1
Mof_H 	H 	0.9242	0.9271	0.6901	0.059
Mof_C 	C 	0.9406	0.7524	0.60029	0.078
Mof_C 	C 	0.9282	0.7252	0.51203	-0.09
Mof_H 	H 	0.9425	0.6159	0.4916	0.075
Mof_C 	C 	0.6909	0.7725	0.1652	-0
Mof_H 	H 	0.7104	0.7744	0.2271	0.012
Mof_C 	C 	0.6181	0.6626	0.1236	-0.05
Mof_H 	H 	0.5877	0.5901	0.1557	0.045
Mof_C 	C 	0.5903	0.6611	0.0326	0.036
Mof_C 	C 	0.6355	0.7683	0.9885	-0.111
Mof_H 	H 	0.617	0.7699	0.9266	0.067
Mof_C 	C 	0.7085	0.8745	0.0359	-0.011
Mof_H 	H 	0.74	0.9475	0.0049	0.033
Mof_C 	C 	0.717	0.7208	0.1555	0.015
Mof_H 	H 	0.759	0.6828	0.2093	0.012
Mof_C 	C 	0.6414	0.6144	0.113	-0.053
Mof_H 	H 	0.6312	0.5056	0.1364	0.048
Mof_C 	C 	0.5813	0.6737	0.0346	0.05
Mof_C 	C 	0.5963	0.8297	0.0011	-0.003
Mof_H 	H 	0.5551	0.8697	0.9473	0.029
Mof_C 	C 	0.6735	0.9288	0.0478	0.031
Mof_H 	H 	0.685	0.0381	0.0256	0.004
Mof_N 	N 	0.97237	0.6146	0.66283	-0.376
Mof_H 	H 	0.0129	0.6586	0.7133	0.127
Mof_H 	H 	0.0059	0.534	0.6408	0.138
Mof_N 	N 	0.7366	0.8794	0.1215	-0.093
Mof_N 	N 	0.5153	0.5529	0.9801	-0.056
Mof_N 	N 	0.7331	0.8722	0.1248	-0.122
Mof_N 	N 	0.4996	0.579	0.9822	-0.032
Mof_O 	O 	0.85619	0.9698	0.31041	-0.456
Mof_O 	O 	0.90813	0.697	0.33068	-0.316
Mof_O 	O 	0.84574	0.3421	0.54917	-0.342
Mof_O 	O 	0.87336	0.2429	0.68349	-0.436
Mof_Zn	Zn	0.85695	0.00231	0.19023	1.203
Mof_C 	C 	0.8867	0.6637	0.85772	0.331
Mof_C 	C 	0.8664	0.2789	0.10154	0.285
Mof_C 	C 	0.8946	0.6397	0.9536	-0.046
Mof_C 	C 	0.8739	0.4803	0.98302	-0.019
Mof_H 	H 	0.8517	0.3886	0.9429	0.067
Mof_C 	C 	0.8858	0.4546	0.07192	-0.032
Mof_C 	C 	0.9178	0.5891	0.12989	-0.101
Mof_H 	H 	0.9242	0.5729	0.1901	0.059
Mof_C 	C 	0.9406	0.7476	0.10029	0.075
Mof_C 	C 	0.9282	0.7748	0.01203	-0.074
Mof_H 	H 	0.9425	0.8841	0.9916	0.069
Mof_C 	C 	0.6909	0.7275	0.6652	-0.008
Mof_H 	H 	0.7104	0.7256	0.7271	0.014
Mof_C 	C 	0.6181	0.8374	0.6236	-0.057
Mof_H 	H 	0.5877	0.9099	0.6557	0.047
Mof_C 	C 	0.5903	0.8389	0.5326	0.04
Mof_C 	C 	0.6355	0.7317	0.4885	-0.073
Mof_H 	H 	0.617	0.7301	0.4266	0.056
Mof_C 	C 	0.7085	0.6255	0.5359	0.015
Mof_H 	H 	0.74	0.5525	0.5049	0.021
Mof_C 	C 	0.717	0.7792	0.6555	0.024
Mof_H 	H 	0.759	0.8172	0.7093	0.009
Mof_C 	C 	0.6414	0.8856	0.613	-0.045
Mof_H 	H 	0.6312	0.9944	0.6364	0.046
Mof_C 	C 	0.5813	0.8263	0.5346	0.045
Mof_C 	C 	0.5963	0.6703	0.5011	-0.038
Mof_H 	H 	0.5551	0.6303	0.4473	0.042
Mof_C 	C 	0.6735	0.5712	0.5478	-0.003
Mof_H 	H 	0.685	0.4619	0.5256	0.02
Mof_N 	N 	0.97237	0.8854	0.16283	-0.366
Mof_H 	H 	0.0129	0.8414	0.2133	0.123
Mof_H 	H 	0.0059	0.966	0.1408	0.133
Mof_N 	N 	0.7366	0.6206	0.6215	-0.093
Mof_N 	N 	0.5153	0.9471	0.4801	-0.054
Mof_N 	N 	0.7331	0.6278	0.6248	-0.122
Mof_N 	N 	0.4996	0.921	0.4822	-0.032
Mof_O 	O 	0.85619	0.5302	0.81041	-0.461
Mof_O 	O 	0.90813	0.803	0.83068	-0.317
Mof_O 	O 	0.84574	0.1579	0.04917	-0.344
Mof_O 	O 	0.87336	0.2571	0.18349	-0.438
Mof_Zn	Zn	0.85695	0.49769	0.69023	1.206
Mof_C 	C 	0.1133	0.1637	0.64228	0.327
Mof_C 	C 	0.1336	0.7789	0.39846	0.283
Mof_C 	C 	0.1054	0.1397	0.5464	-0.031
Mof_C 	C 	0.1261	0.9803	0.51698	-0.03
Mof_H 	H 	0.1483	0.8886	0.5571	0.069
Mof_C 	C 	0.1142	0.9546	0.42808	-0.033
Mof_C 	C 	0.0822	0.0891	0.37011	-0.1
Mof_H 	H 	0.0758	0.0729	0.3099	0.059
Mof_C 	C 	0.0594	0.2476	0.39971	0.078
Mof_C 	C 	0.0718	0.2748	0.48797	-0.09
Mof_H 	H 	0.0575	0.3841	0.5084	0.075
Mof_C 	C 	0.3091	0.2275	0.8348	-0
Mof_H 	H 	0.2896	0.2256	0.7729	0.012
Mof_C 	C 	0.3819	0.3374	0.8764	-0.05
Mof_H 	H 	0.4123	0.4099	0.8443	0.045
Mof_C 	C 	0.4097	0.3389	0.9674	0.036
Mof_C 	C 	0.3645	0.2317	0.0115	-0.111
Mof_H 	H 	0.383	0.2301	0.0734	0.067
Mof_C 	C 	0.2915	0.1255	0.9641	-0.011
Mof_H 	H 	0.26	0.0525	0.9951	0.033
Mof_C 	C 	0.283	0.2792	0.8445	0.015
Mof_H 	H 	0.241	0.3172	0.7907	0.012
Mof_C 	C 	0.3586	0.3856	0.887	-0.053
Mof_H 	H 	0.3688	0.4944	0.8636	0.048
Mof_C 	C 	0.4187	0.3263	0.9654	0.05
Mof_C 	C 	0.4037	0.1703	0.9989	-0.003
Mof_H 	H 	0.4449	0.1303	0.0527	0.029
Mof_C 	C 	0.3265	0.0712	0.9522	0.031
Mof_H 	H 	0.315	0.9619	0.9744	0.004
Mof_N 	N 	0.02763	0.3854	0.33717	-0.376
Mof_H 	H 	0.9871	0.3414	0.2867	0.127
Mof_H 	H 	0.9941	0.466	0.3592	0.138
Mof_N 	N 	0.2634	0.1206	0.8785	-0.093
Mof_N 	N 	0.4847	0.4471	0.0199	-0.056
Mof_N 	N 	0.2669	0.1278	0.8752	-0.122
Mof_N 	N 	0.5004	0.421	0.0178	-0.032
Mof_O 	O 	0.14381	0.0302	0.68959	-0.456
Mof_O 	O 	0.09187	0.303	0.66932	-0.316
Mof_O 	O 	0.15426	0.6579	0.45083	-0.342
Mof_O 	O 	0.12664	0.7571	0.31651	-0.436
Mof_Zn	Zn	0.14305	0.99769	0.80977	1.203
_end
