# CIF file generated by openbabel 2.4.1, see http://openbabel.sf.net
data_I
_chemical_name_common 'BUKMUQ_clean'
_cell_length_a 10.4465
_cell_length_b 11.7859
_cell_length_c 14.6048
_cell_angle_alpha 90
_cell_angle_beta 90
_cell_angle_gamma 90
_space_group_name_H-M_alt 'P 1'
_space_group_name_Hall 'P 1'
loop_
    _symmetry_equiv_pos_as_xyz
    x,y,z
loop_
    _atom_site_label
    _atom_site_type_symbol
    _atom_site_fract_x
    _atom_site_fract_y
    _atom_site_fract_z
    _atom_site_occupancy
    Zn1     Zn   0.83150   0.80200   0.82664   1.000
    Zn2     Zn   0.66850   0.19800   0.32664   1.000
    Zn3     Zn   0.16850   0.30200   0.67336   1.000
    Zn4     Zn   0.33150   0.69800   0.17336   1.000
    H1      H    0.46980   0.47980   0.20760   1.000
    H2      H    0.80290   0.47870   0.06700   1.000
    H3      H    0.53990   0.72630   0.03090   1.000
    H4      H    0.03020   0.52020   0.70760   1.000
    H5      H    0.69710   0.52130   0.56700   1.000
    H6      H    0.96010   0.27370   0.53090   1.000
    H7      H    0.53020   0.97980   0.29240   1.000
    H8      H    0.19710   0.97870   0.43300   1.000
    H9      H    0.46010   0.22630   0.46910   1.000
    H10     H    0.96980   0.02020   0.79240   1.000
    H11     H    0.30290   0.02130   0.93300   1.000
    H12     H    0.03990   0.77370   0.96910   1.000
    C1      C    0.52557   0.51438   0.16443   1.000
    C2      C    0.64175   0.46267   0.14568   1.000
    C3      C    0.72224   0.51182   0.08082   1.000
    C4      C    0.56590   0.65830   0.06039   1.000
    C5      C    0.76790   0.66632   0.96637   1.000
    C6      C    0.68240   0.61058   0.03649   1.000
    C7      C    0.68330   0.35929   0.19905   1.000
    C8      C    0.97443   0.48562   0.66443   1.000
    C9      C    0.85825   0.53733   0.64568   1.000
    C10     C    0.77776   0.48818   0.58082   1.000
    C11     C    0.93410   0.34170   0.56039   1.000
    C12     C    0.73210   0.33368   0.46637   1.000
    C13     C    0.81760   0.38942   0.53649   1.000
    C14     C    0.81670   0.64071   0.69905   1.000
    C15     C    0.47443   0.01438   0.33557   1.000
    C16     C    0.35825   0.96267   0.35432   1.000
    C17     C    0.27776   0.01182   0.41918   1.000
    C18     C    0.43410   0.15830   0.43961   1.000
    C19     C    0.23210   0.16632   0.53363   1.000
    C20     C    0.31760   0.11058   0.46351   1.000
    C21     C    0.31670   0.85929   0.30095   1.000
    C22     C    0.02557   0.98562   0.83557   1.000
    C23     C    0.14175   0.03733   0.85432   1.000
    C24     C    0.22224   0.98818   0.91918   1.000
    C25     C    0.06590   0.84170   0.93961   1.000
    C26     C    0.26790   0.83368   0.03363   1.000
    C27     C    0.18240   0.88942   0.96351   1.000
    C28     C    0.18330   0.14071   0.80095   1.000
    N1      N    0.48822   0.61224   0.12373   1.000
    N2      N    0.01178   0.38776   0.62373   1.000
    N3      N    0.51178   0.11224   0.37627   1.000
    N4      N    0.98822   0.88776   0.87627   1.000
    O1      O    0.71643   0.74936   0.92233   1.000
    O2      O    0.87788   0.63223   0.95605   1.000
    O3      O    0.59435   0.30990   0.24370   1.000
    O4      O    0.79682   0.33189   0.19835   1.000
    O5      O    0.78357   0.25064   0.42233   1.000
    O6      O    0.62212   0.36777   0.45605   1.000
    O7      O    0.90565   0.69010   0.74370   1.000
    O8      O    0.70318   0.66811   0.69835   1.000
    O9      O    0.28357   0.24936   0.57767   1.000
    O10     O    0.12212   0.13223   0.54395   1.000
    O11     O    0.40565   0.80990   0.25630   1.000
    O12     O    0.20318   0.83189   0.30165   1.000
    O13     O    0.21643   0.75064   0.07767   1.000
    O14     O    0.37788   0.86777   0.04395   1.000
    O15     O    0.09435   0.19010   0.75630   1.000
    O16     O    0.29682   0.16811   0.80165   1.000
