# CIF file generated by openbabel 2.4.1, see http://openbabel.sf.net
data_I
_chemical_name_common 'image0'
_cell_length_a 23.01
_cell_length_b 9.672
_cell_length_c 26.09
_cell_angle_alpha 90
_cell_angle_beta 97.62
_cell_angle_gamma 90
_space_group_name_H-M_alt 'P 1'
_space_group_name_Hall 'P 1'
loop_
    _symmetry_equiv_pos_as_xyz
    x,y,z
loop_
    _atom_site_label
    _atom_site_type_symbol
    _atom_site_fract_x
    _atom_site_fract_y
    _atom_site_fract_z
    _atom_site_occupancy
    Zn1     Zn   0.21504   0.12173   0.98905   1.000
    N1      N    0.01570   0.04630   0.00480   1.000
    C1      C    0.99700   0.14810   0.96950   1.000
    C2      C    0.94930   0.14650   0.93070   1.000
    H1      H    0.92530   0.06900   0.92610   1.000
    C3      C    0.93760   0.26090   0.89880   1.000
    H2      H    0.90570   0.25990   0.87280   1.000
    C4      C    0.97350   0.37690   0.90560   1.000
    H3      H    0.96560   0.45340   0.88430   1.000
    C5      C    0.02110   0.37840   0.94440   1.000
    C6      C    0.03290   0.26400   0.97640   1.000
    H4      H    0.06470   0.26500   0.00230   1.000
    C7      C    0.05900   0.49470   0.95280   1.000
    H5      H    0.09110   0.48360   0.97810   1.000
    C8      C    0.09460   0.72490   0.94700   1.000
    C9      C    0.13900   0.70980   0.98830   1.000
    H6      H    0.14370   0.62610   0.00590   1.000
    C10     C    0.17630   0.81980   0.00330   1.000
    H7      H    0.20590   0.80970   0.03090   1.000
    N2      N    0.16920   0.94490   0.97700   1.000
    C11     C    0.12480   0.96000   0.93570   1.000
    H8      H    0.12010   0.04370   0.91810   1.000
    C12     C    0.08750   0.85000   0.92070   1.000
    H9      H    0.05780   0.86010   0.89310   1.000
    C13     C    0.05500   0.61100   0.93060   1.000
    H10     H    0.02580   0.62450   0.90290   1.000
    O1      O    0.27460   0.07140   0.05154   1.000
    O2      O    0.32720   0.25970   0.06854   1.000
    O3      O    0.43070   0.89560   0.25805   1.000
    O4      O    0.27850   0.90150   0.44268   1.000
    O5      O    0.33240   0.71380   0.46024   1.000
    C14     C    0.31240   0.14030   0.07730   1.000
    C15     C    0.34360   0.07390   0.12630   1.000
    C16     C    0.32470   0.95370   0.14300   1.000
    H11     H    0.29210   0.91160   0.12440   1.000
    C17     C    0.35140   0.89160   0.18620   1.000
    H12     H    0.33750   0.80780   0.19720   1.000
    C18     C    0.40000   0.95480   0.21420   1.000
    C19     C    0.42030   0.07690   0.19810   1.000
    H13     H    0.45300   0.11880   0.21650   1.000
    C20     C    0.39190   0.13770   0.15430   1.000
    H14     H    0.40500   0.22220   0.14330   1.000
    C21     C    0.40190   0.88240   0.30090   1.000
    C22     C    0.35560   0.96640   0.30970   1.000
    H15     H    0.34220   0.03540   0.28630   1.000
    C23     C    0.33000   0.94640   0.35330   1.000
    H16     H    0.29880   0.00240   0.35930   1.000
    C24     C    0.34950   0.84460   0.38880   1.000
    C25     C    0.39490   0.76290   0.38010   1.000
    H17     H    0.40790   0.69380   0.40370   1.000
    C26     C    0.42250   0.78150   0.33590   1.000
    H18     H    0.45410   0.72650   0.33020   1.000
    C27     C    0.31850   0.82010   0.43460   1.000
    N3      N    0.98900   0.00710   0.97740   1.000
    C28     C    0.98120   0.13530   0.94990   1.000
    C29     C    0.93600   0.13900   0.90890   1.000
    H19     H    0.91300   0.06110   0.90070   1.000
    C30     C    0.92530   0.25920   0.88000   1.000
    H20     H    0.89510   0.26170   0.85250   1.000
    C31     C    0.95980   0.37570   0.89210   1.000
    H21     H    0.95260   0.45620   0.87270   1.000
    C32     C    0.00500   0.37200   0.93310   1.000
    C33     C    0.01570   0.25180   0.96200   1.000
    H22     H    0.04590   0.24920   0.98940   1.000
    C34     C    0.04130   0.49760   0.94540   1.000
    H23     H    0.02400   0.56710   0.92390   1.000
    C35     C    0.11550   0.68890   0.97320   1.000
    C36     C    0.16460   0.71400   0.00910   1.000
    H24     H    0.17870   0.64540   0.03250   1.000
    C37     C    0.19250   0.84150   0.01010   1.000
    H25     H    0.22540   0.85830   0.03410   1.000
    N4      N    0.17140   0.94400   0.97520   1.000
    C38     C    0.12230   0.91900   0.93930   1.000
    H26     H    0.10810   0.98760   0.91590   1.000
    C39     C    0.09430   0.79140   0.93830   1.000
    H27     H    0.06140   0.77470   0.91430   1.000
    C40     C    0.08620   0.55310   0.97260   1.000
    H28     H    0.10440   0.49340   0.99770   1.000
    Zn2     Zn   0.71504   0.62173   0.98905   1.000
    N5      N    0.51570   0.54630   0.00480   1.000
    C41     C    0.49700   0.64810   0.96950   1.000
    C42     C    0.44930   0.64650   0.93070   1.000
    H29     H    0.42530   0.56900   0.92610   1.000
    C43     C    0.43760   0.76090   0.89880   1.000
    H30     H    0.40570   0.75990   0.87280   1.000
    C44     C    0.47350   0.87690   0.90560   1.000
    H31     H    0.46560   0.95340   0.88430   1.000
    C45     C    0.52110   0.87840   0.94440   1.000
    C46     C    0.53290   0.76400   0.97640   1.000
    H32     H    0.56470   0.76500   0.00230   1.000
    C47     C    0.55900   0.99470   0.95280   1.000
    H33     H    0.59110   0.98360   0.97810   1.000
    C48     C    0.59460   0.22490   0.94700   1.000
    C49     C    0.63900   0.20980   0.98830   1.000
    H34     H    0.64370   0.12610   0.00590   1.000
    C50     C    0.67630   0.31980   0.00330   1.000
    H35     H    0.70590   0.30970   0.03090   1.000
    N6      N    0.66920   0.44490   0.97700   1.000
    C51     C    0.62480   0.46000   0.93570   1.000
    H36     H    0.62010   0.54370   0.91810   1.000
    C52     C    0.58750   0.35000   0.92070   1.000
    H37     H    0.55780   0.36010   0.89310   1.000
    C53     C    0.55500   0.11100   0.93060   1.000
    H38     H    0.52580   0.12450   0.90290   1.000
    O6      O    0.77460   0.57140   0.05154   1.000
    O7      O    0.82720   0.75970   0.06854   1.000
    O8      O    0.93070   0.39560   0.25805   1.000
    O9      O    0.77850   0.40150   0.44268   1.000
    O10     O    0.83240   0.21380   0.46024   1.000
    C54     C    0.81240   0.64030   0.07730   1.000
    C55     C    0.84360   0.57390   0.12630   1.000
    C56     C    0.82470   0.45370   0.14300   1.000
    H39     H    0.79210   0.41160   0.12440   1.000
    C57     C    0.85140   0.39160   0.18620   1.000
    H40     H    0.83750   0.30780   0.19720   1.000
    C58     C    0.90000   0.45480   0.21420   1.000
    C59     C    0.92030   0.57690   0.19810   1.000
    H41     H    0.95300   0.61880   0.21650   1.000
    C60     C    0.89190   0.63770   0.15430   1.000
    H42     H    0.90500   0.72220   0.14330   1.000
    C61     C    0.90190   0.38240   0.30090   1.000
    C62     C    0.85560   0.46640   0.30970   1.000
    H43     H    0.84220   0.53540   0.28630   1.000
    C63     C    0.83000   0.44640   0.35330   1.000
    H44     H    0.79880   0.50240   0.35930   1.000
    C64     C    0.84950   0.34460   0.38880   1.000
    C65     C    0.89490   0.26290   0.38010   1.000
    H45     H    0.90790   0.19380   0.40370   1.000
    C66     C    0.92250   0.28150   0.33590   1.000
    H46     H    0.95410   0.22650   0.33020   1.000
    C67     C    0.81850   0.32010   0.43460   1.000
    N7      N    0.48900   0.50710   0.97740   1.000
    C68     C    0.48120   0.63530   0.94990   1.000
    C69     C    0.43600   0.63900   0.90890   1.000
    H47     H    0.41300   0.56110   0.90070   1.000
    C70     C    0.42530   0.75920   0.88000   1.000
    H48     H    0.39510   0.76170   0.85250   1.000
    C71     C    0.45980   0.87570   0.89210   1.000
    H49     H    0.45260   0.95620   0.87270   1.000
    C72     C    0.50500   0.87200   0.93310   1.000
    C73     C    0.51570   0.75180   0.96200   1.000
    H50     H    0.54590   0.74920   0.98940   1.000
    C74     C    0.54130   0.99760   0.94540   1.000
    H51     H    0.52400   0.06710   0.92390   1.000
    C75     C    0.61550   0.18890   0.97320   1.000
    C76     C    0.66460   0.21400   0.00910   1.000
    H52     H    0.67870   0.14540   0.03250   1.000
    C77     C    0.69250   0.34150   0.01010   1.000
    H53     H    0.72540   0.35830   0.03410   1.000
    N8      N    0.67140   0.44400   0.97520   1.000
    C78     C    0.62230   0.41900   0.93930   1.000
    H54     H    0.60810   0.48760   0.91590   1.000
    C79     C    0.59430   0.29140   0.93830   1.000
    H55     H    0.56140   0.27470   0.91430   1.000
    C80     C    0.58620   0.05310   0.97260   1.000
    H56     H    0.60440   0.99340   0.99770   1.000
    Zn3     Zn   0.78496   0.12173   0.51095   1.000
    N9      N    0.98430   0.04630   0.49520   1.000
    C81     C    0.00300   0.14810   0.53050   1.000
    C82     C    0.05070   0.14650   0.56930   1.000
    H57     H    0.07470   0.06900   0.57390   1.000
    C83     C    0.06240   0.26090   0.60120   1.000
    H58     H    0.09430   0.25990   0.62720   1.000
    C84     C    0.02650   0.37690   0.59440   1.000
    H59     H    0.03440   0.45340   0.61570   1.000
    C85     C    0.97890   0.37840   0.55560   1.000
    C86     C    0.96710   0.26400   0.52360   1.000
    H60     H    0.93530   0.26500   0.49770   1.000
    C87     C    0.94100   0.49470   0.54720   1.000
    H61     H    0.90890   0.48360   0.52190   1.000
    C88     C    0.90540   0.72490   0.55300   1.000
    C89     C    0.86100   0.70980   0.51170   1.000
    H62     H    0.85630   0.62610   0.49410   1.000
    C90     C    0.82370   0.81980   0.49670   1.000
    H63     H    0.79410   0.80970   0.46910   1.000
    N10     N    0.83080   0.94490   0.52300   1.000
    C91     C    0.87520   0.96000   0.56430   1.000
    H64     H    0.87990   0.04370   0.58190   1.000
    C92     C    0.91250   0.85000   0.57930   1.000
    H65     H    0.94220   0.86010   0.60690   1.000
    C93     C    0.94500   0.61100   0.56940   1.000
    H66     H    0.97420   0.62450   0.59710   1.000
    O11     O    0.72540   0.07140   0.44846   1.000
    O12     O    0.67280   0.25970   0.43146   1.000
    O13     O    0.56930   0.89560   0.24195   1.000
    O14     O    0.72150   0.90150   0.05732   1.000
    O15     O    0.66760   0.71380   0.03976   1.000
    C94     C    0.68760   0.14030   0.42270   1.000
    C95     C    0.65640   0.07390   0.37370   1.000
    C96     C    0.67530   0.95370   0.35700   1.000
    H67     H    0.70790   0.91160   0.37560   1.000
    C97     C    0.64860   0.89160   0.31380   1.000
    H68     H    0.66250   0.80780   0.30280   1.000
    C98     C    0.60000   0.95480   0.28580   1.000
    C99     C    0.57970   0.07690   0.30190   1.000
    H69     H    0.54700   0.11880   0.28350   1.000
    C100    C    0.60810   0.13770   0.34570   1.000
    H70     H    0.59500   0.22220   0.35670   1.000
    C101    C    0.59810   0.88240   0.19910   1.000
    C102    C    0.64440   0.96640   0.19030   1.000
    H71     H    0.65780   0.03540   0.21370   1.000
    C103    C    0.67000   0.94640   0.14670   1.000
    H72     H    0.70120   0.00240   0.14070   1.000
    C104    C    0.65050   0.84460   0.11120   1.000
    C105    C    0.60510   0.76290   0.11990   1.000
    H73     H    0.59210   0.69380   0.09630   1.000
    C106    C    0.57750   0.78150   0.16410   1.000
    H74     H    0.54590   0.72650   0.16980   1.000
    C107    C    0.68150   0.82010   0.06540   1.000
    N11     N    0.01100   0.00710   0.52260   1.000
    C108    C    0.01880   0.13530   0.55010   1.000
    C109    C    0.06400   0.13900   0.59110   1.000
    H75     H    0.08700   0.06110   0.59930   1.000
    C110    C    0.07470   0.25920   0.62000   1.000
    H76     H    0.10490   0.26170   0.64750   1.000
    C111    C    0.04020   0.37570   0.60790   1.000
    H77     H    0.04740   0.45620   0.62730   1.000
    C112    C    0.99500   0.37200   0.56690   1.000
    C113    C    0.98430   0.25180   0.53800   1.000
    H78     H    0.95410   0.24920   0.51060   1.000
    C114    C    0.95870   0.49760   0.55460   1.000
    H79     H    0.97600   0.56710   0.57610   1.000
    C115    C    0.88450   0.68890   0.52680   1.000
    C116    C    0.83540   0.71400   0.49090   1.000
    H80     H    0.82130   0.64540   0.46750   1.000
    C117    C    0.80750   0.84150   0.48990   1.000
    H81     H    0.77460   0.85830   0.46590   1.000
    N12     N    0.82860   0.94400   0.52480   1.000
    C118    C    0.87770   0.91900   0.56070   1.000
    H82     H    0.89190   0.98760   0.58410   1.000
    C119    C    0.90570   0.79140   0.56170   1.000
    H83     H    0.93860   0.77470   0.58570   1.000
    C120    C    0.91380   0.55310   0.52740   1.000
    H84     H    0.89560   0.49340   0.50230   1.000
    Zn4     Zn   0.28496   0.62173   0.51095   1.000
    N13     N    0.48430   0.54630   0.49520   1.000
    C121    C    0.50300   0.64810   0.53050   1.000
    C122    C    0.55070   0.64650   0.56930   1.000
    H85     H    0.57470   0.56900   0.57390   1.000
    C123    C    0.56240   0.76090   0.60120   1.000
    H86     H    0.59430   0.75990   0.62720   1.000
    C124    C    0.52650   0.87690   0.59440   1.000
    H87     H    0.53440   0.95340   0.61570   1.000
    C125    C    0.47890   0.87840   0.55560   1.000
    C126    C    0.46710   0.76400   0.52360   1.000
    H88     H    0.43530   0.76500   0.49770   1.000
    C127    C    0.44100   0.99470   0.54720   1.000
    H89     H    0.40890   0.98360   0.52190   1.000
    C128    C    0.40540   0.22490   0.55300   1.000
    C129    C    0.36100   0.20980   0.51170   1.000
    H90     H    0.35630   0.12610   0.49410   1.000
    C130    C    0.32370   0.31980   0.49670   1.000
    H91     H    0.29410   0.30970   0.46910   1.000
    N14     N    0.33080   0.44490   0.52300   1.000
    C131    C    0.37520   0.46000   0.56430   1.000
    H92     H    0.37990   0.54370   0.58190   1.000
    C132    C    0.41250   0.35000   0.57930   1.000
    H93     H    0.44220   0.36010   0.60690   1.000
    C133    C    0.44500   0.11100   0.56940   1.000
    H94     H    0.47420   0.12450   0.59710   1.000
    O16     O    0.22540   0.57140   0.44846   1.000
    O17     O    0.17280   0.75970   0.43146   1.000
    O18     O    0.06930   0.39560   0.24195   1.000
    O19     O    0.22150   0.40150   0.05732   1.000
    O20     O    0.16760   0.21380   0.03976   1.000
    C134    C    0.18760   0.64030   0.42270   1.000
    C135    C    0.15640   0.57390   0.37370   1.000
    C136    C    0.17530   0.45370   0.35700   1.000
    H95     H    0.20790   0.41160   0.37560   1.000
    C137    C    0.14860   0.39160   0.31380   1.000
    H96     H    0.16250   0.30780   0.30280   1.000
    C138    C    0.10000   0.45480   0.28580   1.000
    C139    C    0.07970   0.57690   0.30190   1.000
    H97     H    0.04700   0.61880   0.28350   1.000
    C140    C    0.10810   0.63770   0.34570   1.000
    H98     H    0.09500   0.72220   0.35670   1.000
    C141    C    0.09810   0.38240   0.19910   1.000
    C142    C    0.14440   0.46640   0.19030   1.000
    H99     H    0.15780   0.53540   0.21370   1.000
    C143    C    0.17000   0.44640   0.14670   1.000
    H100    H    0.20120   0.50240   0.14070   1.000
    C144    C    0.15050   0.34460   0.11120   1.000
    C145    C    0.10510   0.26290   0.11990   1.000
    H101    H    0.09210   0.19380   0.09630   1.000
    C146    C    0.07750   0.28150   0.16410   1.000
    H102    H    0.04590   0.22650   0.16980   1.000
    C147    C    0.18150   0.32010   0.06540   1.000
    N15     N    0.51100   0.50710   0.52260   1.000
    C148    C    0.51880   0.63530   0.55010   1.000
    C149    C    0.56400   0.63900   0.59110   1.000
    H103    H    0.58700   0.56110   0.59930   1.000
    C150    C    0.57470   0.75920   0.62000   1.000
    H104    H    0.60490   0.76170   0.64750   1.000
    C151    C    0.54020   0.87570   0.60790   1.000
    H105    H    0.54740   0.95620   0.62730   1.000
    C152    C    0.49500   0.87200   0.56690   1.000
    C153    C    0.48430   0.75180   0.53800   1.000
    H106    H    0.45410   0.74920   0.51060   1.000
    C154    C    0.45870   0.99760   0.55460   1.000
    H107    H    0.47600   0.06710   0.57610   1.000
    C155    C    0.38450   0.18890   0.52680   1.000
    C156    C    0.33540   0.21400   0.49090   1.000
    H108    H    0.32130   0.14540   0.46750   1.000
    C157    C    0.30750   0.34150   0.48990   1.000
    H109    H    0.27460   0.35830   0.46590   1.000
    N16     N    0.32860   0.44400   0.52480   1.000
    C158    C    0.37770   0.41900   0.56070   1.000
    H110    H    0.39190   0.48760   0.58410   1.000
    C159    C    0.40570   0.29140   0.56170   1.000
    H111    H    0.43860   0.27470   0.58570   1.000
    C160    C    0.41380   0.05310   0.52740   1.000
    H112    H    0.39560   0.99340   0.50230   1.000
    Zn5     Zn   0.78496   0.87827   0.01095   1.000
    N17     N    0.98430   0.95370   0.99520   1.000
    C161    C    0.00300   0.85190   0.03050   1.000
    C162    C    0.05070   0.85350   0.06930   1.000
    H113    H    0.07470   0.93100   0.07390   1.000
    C163    C    0.06240   0.73910   0.10120   1.000
    H114    H    0.09430   0.74010   0.12720   1.000
    C164    C    0.02650   0.62310   0.09440   1.000
    H115    H    0.03440   0.54660   0.11570   1.000
    C165    C    0.97890   0.62160   0.05560   1.000
    C166    C    0.96710   0.73600   0.02360   1.000
    H116    H    0.93530   0.73500   0.99770   1.000
    C167    C    0.94100   0.50530   0.04720   1.000
    H117    H    0.90890   0.51640   0.02190   1.000
    C168    C    0.90540   0.27510   0.05300   1.000
    C169    C    0.86100   0.29020   0.01170   1.000
    H118    H    0.85630   0.37390   0.99410   1.000
    C170    C    0.82370   0.18020   0.99670   1.000
    H119    H    0.79410   0.19030   0.96910   1.000
    N18     N    0.83080   0.05510   0.02300   1.000
    C171    C    0.87520   0.04000   0.06430   1.000
    H120    H    0.87990   0.95630   0.08190   1.000
    C172    C    0.91250   0.15000   0.07930   1.000
    H121    H    0.94220   0.13990   0.10690   1.000
    C173    C    0.94500   0.38900   0.06940   1.000
    H122    H    0.97420   0.37550   0.09710   1.000
    O21     O    0.72540   0.92860   0.94846   1.000
    O22     O    0.67280   0.74030   0.93146   1.000
    O23     O    0.56930   0.10440   0.74195   1.000
    O24     O    0.72150   0.09850   0.55732   1.000
    O25     O    0.66760   0.28620   0.53976   1.000
    C174    C    0.68760   0.85970   0.92270   1.000
    C175    C    0.65640   0.92610   0.87370   1.000
    C176    C    0.67530   0.04630   0.85700   1.000
    H123    H    0.70790   0.08840   0.87560   1.000
    C177    C    0.64860   0.10840   0.81380   1.000
    H124    H    0.66250   0.19220   0.80280   1.000
    C178    C    0.60000   0.04520   0.78580   1.000
    C179    C    0.57970   0.92310   0.80190   1.000
    H125    H    0.54700   0.88120   0.78350   1.000
    C180    C    0.60810   0.86230   0.84570   1.000
    H126    H    0.59500   0.77780   0.85670   1.000
    C181    C    0.59810   0.11760   0.69910   1.000
    C182    C    0.64440   0.03360   0.69030   1.000
    H127    H    0.65780   0.96460   0.71370   1.000
    C183    C    0.67000   0.05360   0.64670   1.000
    H128    H    0.70120   0.99760   0.64070   1.000
    C184    C    0.65050   0.15540   0.61120   1.000
    C185    C    0.60510   0.23710   0.61990   1.000
    H129    H    0.59210   0.30620   0.59630   1.000
    C186    C    0.57750   0.21850   0.66410   1.000
    H130    H    0.54590   0.27350   0.66980   1.000
    C187    C    0.68150   0.17990   0.56540   1.000
    N19     N    0.01100   0.99290   0.02260   1.000
    C188    C    0.01880   0.86470   0.05010   1.000
    C189    C    0.06400   0.86100   0.09110   1.000
    H131    H    0.08700   0.93890   0.09930   1.000
    C190    C    0.07470   0.74080   0.12000   1.000
    H132    H    0.10490   0.73830   0.14750   1.000
    C191    C    0.04020   0.62430   0.10790   1.000
    H133    H    0.04740   0.54380   0.12730   1.000
    C192    C    0.99500   0.62800   0.06690   1.000
    C193    C    0.98430   0.74820   0.03800   1.000
    H134    H    0.95410   0.75080   0.01060   1.000
    C194    C    0.95870   0.50240   0.05460   1.000
    H135    H    0.97600   0.43290   0.07610   1.000
    C195    C    0.88450   0.31110   0.02680   1.000
    C196    C    0.83540   0.28600   0.99090   1.000
    H136    H    0.82130   0.35460   0.96750   1.000
    C197    C    0.80750   0.15850   0.98990   1.000
    H137    H    0.77460   0.14170   0.96590   1.000
    N20     N    0.82860   0.05600   0.02480   1.000
    C198    C    0.87770   0.08100   0.06070   1.000
    H138    H    0.89190   0.01240   0.08410   1.000
    C199    C    0.90570   0.20860   0.06170   1.000
    H139    H    0.93860   0.22530   0.08570   1.000
    C200    C    0.91380   0.44690   0.02740   1.000
    H140    H    0.89560   0.50660   0.00230   1.000
    Zn6     Zn   0.28496   0.37827   0.01095   1.000
    N21     N    0.48430   0.45370   0.99520   1.000
    C201    C    0.50300   0.35190   0.03050   1.000
    C202    C    0.55070   0.35350   0.06930   1.000
    H141    H    0.57470   0.43100   0.07390   1.000
    C203    C    0.56240   0.23910   0.10120   1.000
    H142    H    0.59430   0.24010   0.12720   1.000
    C204    C    0.52650   0.12310   0.09440   1.000
    H143    H    0.53440   0.04660   0.11570   1.000
    C205    C    0.47890   0.12160   0.05560   1.000
    C206    C    0.46710   0.23600   0.02360   1.000
    H144    H    0.43530   0.23500   0.99770   1.000
    C207    C    0.44100   0.00530   0.04720   1.000
    H145    H    0.40890   0.01640   0.02190   1.000
    C208    C    0.40540   0.77510   0.05300   1.000
    C209    C    0.36100   0.79020   0.01170   1.000
    H146    H    0.35630   0.87390   0.99410   1.000
    C210    C    0.32370   0.68020   0.99670   1.000
    H147    H    0.29410   0.69030   0.96910   1.000
    N22     N    0.33080   0.55510   0.02300   1.000
    C211    C    0.37520   0.54000   0.06430   1.000
    H148    H    0.37990   0.45630   0.08190   1.000
    C212    C    0.41250   0.65000   0.07930   1.000
    H149    H    0.44220   0.63990   0.10690   1.000
    C213    C    0.44500   0.88900   0.06940   1.000
    H150    H    0.47420   0.87550   0.09710   1.000
    O26     O    0.22540   0.42860   0.94846   1.000
    O27     O    0.17280   0.24030   0.93146   1.000
    O28     O    0.06930   0.60440   0.74195   1.000
    O29     O    0.22150   0.59850   0.55732   1.000
    O30     O    0.16760   0.78620   0.53976   1.000
    C214    C    0.18760   0.35970   0.92270   1.000
    C215    C    0.15640   0.42610   0.87370   1.000
    C216    C    0.17530   0.54630   0.85700   1.000
    H151    H    0.20790   0.58840   0.87560   1.000
    C217    C    0.14860   0.60840   0.81380   1.000
    H152    H    0.16250   0.69220   0.80280   1.000
    C218    C    0.10000   0.54520   0.78580   1.000
    C219    C    0.07970   0.42310   0.80190   1.000
    H153    H    0.04700   0.38120   0.78350   1.000
    C220    C    0.10810   0.36230   0.84570   1.000
    H154    H    0.09500   0.27780   0.85670   1.000
    C221    C    0.09810   0.61760   0.69910   1.000
    C222    C    0.14440   0.53360   0.69030   1.000
    H155    H    0.15780   0.46460   0.71370   1.000
    C223    C    0.17000   0.55360   0.64670   1.000
    H156    H    0.20120   0.49760   0.64070   1.000
    C224    C    0.15050   0.65540   0.61120   1.000
    C225    C    0.10510   0.73710   0.61990   1.000
    H157    H    0.09210   0.80620   0.59630   1.000
    C226    C    0.07750   0.71850   0.66410   1.000
    H158    H    0.04590   0.77350   0.66980   1.000
    C227    C    0.18150   0.67990   0.56540   1.000
    N23     N    0.51100   0.49290   0.02260   1.000
    C228    C    0.51880   0.36470   0.05010   1.000
    C229    C    0.56400   0.36100   0.09110   1.000
    H159    H    0.58700   0.43890   0.09930   1.000
    C230    C    0.57470   0.24080   0.12000   1.000
    H160    H    0.60490   0.23830   0.14750   1.000
    C231    C    0.54020   0.12430   0.10790   1.000
    H161    H    0.54740   0.04380   0.12730   1.000
    C232    C    0.49500   0.12800   0.06690   1.000
    C233    C    0.48430   0.24820   0.03800   1.000
    H162    H    0.45410   0.25080   0.01060   1.000
    C234    C    0.45870   0.00240   0.05460   1.000
    H163    H    0.47600   0.93290   0.07610   1.000
    C235    C    0.38450   0.81110   0.02680   1.000
    C236    C    0.33540   0.78600   0.99090   1.000
    H164    H    0.32130   0.85460   0.96750   1.000
    C237    C    0.30750   0.65850   0.98990   1.000
    H165    H    0.27460   0.64170   0.96590   1.000
    N24     N    0.32860   0.55600   0.02480   1.000
    C238    C    0.37770   0.58100   0.06070   1.000
    H166    H    0.39190   0.51240   0.08410   1.000
    C239    C    0.40570   0.70860   0.06170   1.000
    H167    H    0.43860   0.72530   0.08570   1.000
    C240    C    0.41380   0.94690   0.02740   1.000
    H168    H    0.39560   0.00660   0.00230   1.000
    Zn7     Zn   0.21504   0.87827   0.48905   1.000
    N25     N    0.01570   0.95370   0.50480   1.000
    C241    C    0.99700   0.85190   0.46950   1.000
    C242    C    0.94930   0.85350   0.43070   1.000
    H169    H    0.92530   0.93100   0.42610   1.000
    C243    C    0.93760   0.73910   0.39880   1.000
    H170    H    0.90570   0.74010   0.37280   1.000
    C244    C    0.97350   0.62310   0.40560   1.000
    H171    H    0.96560   0.54660   0.38430   1.000
    C245    C    0.02110   0.62160   0.44440   1.000
    C246    C    0.03290   0.73600   0.47640   1.000
    H172    H    0.06470   0.73500   0.50230   1.000
    C247    C    0.05900   0.50530   0.45280   1.000
    H173    H    0.09110   0.51640   0.47810   1.000
    C248    C    0.09460   0.27510   0.44700   1.000
    C249    C    0.13900   0.29020   0.48830   1.000
    H174    H    0.14370   0.37390   0.50590   1.000
    C250    C    0.17630   0.18020   0.50330   1.000
    H175    H    0.20590   0.19030   0.53090   1.000
    N26     N    0.16920   0.05510   0.47700   1.000
    C251    C    0.12480   0.04000   0.43570   1.000
    H176    H    0.12010   0.95630   0.41810   1.000
    C252    C    0.08750   0.15000   0.42070   1.000
    H177    H    0.05780   0.13990   0.39310   1.000
    C253    C    0.05500   0.38900   0.43060   1.000
    H178    H    0.02580   0.37550   0.40290   1.000
    O31     O    0.27460   0.92860   0.55154   1.000
    O32     O    0.32720   0.74030   0.56854   1.000
    O33     O    0.43070   0.10440   0.75805   1.000
    O34     O    0.27850   0.09850   0.94268   1.000
    O35     O    0.33240   0.28620   0.96024   1.000
    C254    C    0.31240   0.85970   0.57730   1.000
    C255    C    0.34360   0.92610   0.62630   1.000
    C256    C    0.32470   0.04630   0.64300   1.000
    H179    H    0.29210   0.08840   0.62440   1.000
    C257    C    0.35140   0.10840   0.68620   1.000
    H180    H    0.33750   0.19220   0.69720   1.000
    C258    C    0.40000   0.04520   0.71420   1.000
    C259    C    0.42030   0.92310   0.69810   1.000
    H181    H    0.45300   0.88120   0.71650   1.000
    C260    C    0.39190   0.86230   0.65430   1.000
    H182    H    0.40500   0.77780   0.64330   1.000
    C261    C    0.40190   0.11760   0.80090   1.000
    C262    C    0.35560   0.03360   0.80970   1.000
    H183    H    0.34220   0.96460   0.78630   1.000
    C263    C    0.33000   0.05360   0.85330   1.000
    H184    H    0.29880   0.99760   0.85930   1.000
    C264    C    0.34950   0.15540   0.88880   1.000
    C265    C    0.39490   0.23710   0.88010   1.000
    H185    H    0.40790   0.30620   0.90370   1.000
    C266    C    0.42250   0.21850   0.83590   1.000
    H186    H    0.45410   0.27350   0.83020   1.000
    C267    C    0.31850   0.17990   0.93460   1.000
    N27     N    0.98900   0.99290   0.47740   1.000
    C268    C    0.98120   0.86470   0.44990   1.000
    C269    C    0.93600   0.86100   0.40890   1.000
    H187    H    0.91300   0.93890   0.40070   1.000
    C270    C    0.92530   0.74080   0.38000   1.000
    H188    H    0.89510   0.73830   0.35250   1.000
    C271    C    0.95980   0.62430   0.39210   1.000
    H189    H    0.95260   0.54380   0.37270   1.000
    C272    C    0.00500   0.62800   0.43310   1.000
    C273    C    0.01570   0.74820   0.46200   1.000
    H190    H    0.04590   0.75080   0.48940   1.000
    C274    C    0.04130   0.50240   0.44540   1.000
    H191    H    0.02400   0.43290   0.42390   1.000
    C275    C    0.11550   0.31110   0.47320   1.000
    C276    C    0.16460   0.28600   0.50910   1.000
    H192    H    0.17870   0.35460   0.53250   1.000
    C277    C    0.19250   0.15850   0.51010   1.000
    H193    H    0.22540   0.14170   0.53410   1.000
    N28     N    0.17140   0.05600   0.47520   1.000
    C278    C    0.12230   0.08100   0.43930   1.000
    H194    H    0.10810   0.01240   0.41590   1.000
    C279    C    0.09430   0.20860   0.43830   1.000
    H195    H    0.06140   0.22530   0.41430   1.000
    C280    C    0.08620   0.44690   0.47260   1.000
    H196    H    0.10440   0.50660   0.49770   1.000
    Zn8     Zn   0.71504   0.37827   0.48905   1.000
    N29     N    0.51570   0.45370   0.50480   1.000
    C281    C    0.49700   0.35190   0.46950   1.000
    C282    C    0.44930   0.35350   0.43070   1.000
    H197    H    0.42530   0.43100   0.42610   1.000
    C283    C    0.43760   0.23910   0.39880   1.000
    H198    H    0.40570   0.24010   0.37280   1.000
    C284    C    0.47350   0.12310   0.40560   1.000
    H199    H    0.46560   0.04660   0.38430   1.000
    C285    C    0.52110   0.12160   0.44440   1.000
    C286    C    0.53290   0.23600   0.47640   1.000
    H200    H    0.56470   0.23500   0.50230   1.000
    C287    C    0.55900   0.00530   0.45280   1.000
    H201    H    0.59110   0.01640   0.47810   1.000
    C288    C    0.59460   0.77510   0.44700   1.000
    C289    C    0.63900   0.79020   0.48830   1.000
    H202    H    0.64370   0.87390   0.50590   1.000
    C290    C    0.67630   0.68020   0.50330   1.000
    H203    H    0.70590   0.69030   0.53090   1.000
    N30     N    0.66920   0.55510   0.47700   1.000
    C291    C    0.62480   0.54000   0.43570   1.000
    H204    H    0.62010   0.45630   0.41810   1.000
    C292    C    0.58750   0.65000   0.42070   1.000
    H205    H    0.55780   0.63990   0.39310   1.000
    C293    C    0.55500   0.88900   0.43060   1.000
    H206    H    0.52580   0.87550   0.40290   1.000
    O36     O    0.77460   0.42860   0.55154   1.000
    O37     O    0.82720   0.24030   0.56854   1.000
    O38     O    0.93070   0.60440   0.75805   1.000
    O39     O    0.77850   0.59850   0.94268   1.000
    O40     O    0.83240   0.78620   0.96024   1.000
    C294    C    0.81240   0.35970   0.57730   1.000
    C295    C    0.84360   0.42610   0.62630   1.000
    C296    C    0.82470   0.54630   0.64300   1.000
    H207    H    0.79210   0.58840   0.62440   1.000
    C297    C    0.85140   0.60840   0.68620   1.000
    H208    H    0.83750   0.69220   0.69720   1.000
    C298    C    0.90000   0.54520   0.71420   1.000
    C299    C    0.92030   0.42310   0.69810   1.000
    H209    H    0.95300   0.38120   0.71650   1.000
    C300    C    0.89190   0.36230   0.65430   1.000
    H210    H    0.90500   0.27780   0.64330   1.000
    C301    C    0.90190   0.61760   0.80090   1.000
    C302    C    0.85560   0.53360   0.80970   1.000
    H211    H    0.84220   0.46460   0.78630   1.000
    C303    C    0.83000   0.55360   0.85330   1.000
    H212    H    0.79880   0.49760   0.85930   1.000
    C304    C    0.84950   0.65540   0.88880   1.000
    C305    C    0.89490   0.73710   0.88010   1.000
    H213    H    0.90790   0.80620   0.90370   1.000
    C306    C    0.92250   0.71850   0.83590   1.000
    H214    H    0.95410   0.77350   0.83020   1.000
    C307    C    0.81850   0.67990   0.93460   1.000
    N31     N    0.48900   0.49290   0.47740   1.000
    C308    C    0.48120   0.36470   0.44990   1.000
    C309    C    0.43600   0.36100   0.40890   1.000
    H215    H    0.41300   0.43890   0.40070   1.000
    C310    C    0.42530   0.24080   0.38000   1.000
    H216    H    0.39510   0.23830   0.35250   1.000
    C311    C    0.45980   0.12430   0.39210   1.000
    H217    H    0.45260   0.04380   0.37270   1.000
    C312    C    0.50500   0.12800   0.43310   1.000
    C313    C    0.51570   0.24820   0.46200   1.000
    H218    H    0.54590   0.25080   0.48940   1.000
    C314    C    0.54130   0.00240   0.44540   1.000
    H219    H    0.52400   0.93290   0.42390   1.000
    C315    C    0.61550   0.81110   0.47320   1.000
    C316    C    0.66460   0.78600   0.50910   1.000
    H220    H    0.67870   0.85460   0.53250   1.000
    C317    C    0.69250   0.65850   0.51010   1.000
    H221    H    0.72540   0.64170   0.53410   1.000
    N32     N    0.67140   0.55600   0.47520   1.000
    C318    C    0.62230   0.58100   0.43930   1.000
    H222    H    0.60810   0.51240   0.41590   1.000
    C319    C    0.59430   0.70860   0.43830   1.000
    H223    H    0.56140   0.72530   0.41430   1.000
    C320    C    0.58620   0.94690   0.47260   1.000
    H224    H    0.60440   0.00660   0.49770   1.000
