data_functionalizedCrystal
_audit_creation_method	'EQeq! by Chris Wilmer'
_symmetry_space_group_name_H-M	'P1'
_symmetry_Int_Tables_number	1
_symmetry_cell_setting	triclinic
loop_
_symmetry_equiv_pos_as_xyz
  x,y,z
_cell_length_a	30.5521
_cell_length_b	30.5521
_cell_length_c	30.5521
_cell_angle_alpha	90
_cell_angle_beta	90
_cell_angle_gamma	90
loop_
_atom_site_label
_atom_site_type_symbol
_atom_site_fract_x
_atom_site_fract_y
_atom_site_fract_z
_atom_site_charge
Mof_Cu	Cu	-3.54068e-33	0.22846	-0	0.892
Mof_Cu	Cu	-0	0.31419	-0	0.92
Mof_N 	N 	-3.54068e-33	0.38297	-0	-0.214
Mof_C 	C 	-3.54068e-33	0.47579	-0	0.04
Mof_Cu	Cu	-0	0.77154	-0	0.893
Mof_Cu	Cu	-7.08137e-33	0.68581	-0	0.92
Mof_N 	N 	-7.08137e-33	0.61703	-0	-0.215
Mof_C 	C 	-0	0.52421	-0	0.039
Mof_Cu	Cu	-2.6841e-33	-3.54068e-33	0.22846	0.891
Mof_Cu	Cu	1.17802e-33	0	0.31419	0.919
Mof_N 	N 	-2.10478e-33	-3.54068e-33	0.38297	-0.215
Mof_C 	C 	-5.29744e-33	-3.54068e-33	0.47579	0.039
Mof_Cu	Cu	2.89281e-33	-7.08137e-33	0.77154	0.892
Mof_Cu	Cu	-4.50999e-33	-7.08137e-33	0.68581	0.919
Mof_N 	N 	-4.76788e-33	0	0.61703	-0.215
Mof_C 	C 	1.96547e-33	0	0.52421	0.039
Mof_Cu	Cu	0.22846	0	-0	0.891
Mof_Cu	Cu	0.31419	0	-0	0.919
Mof_N 	N 	0.38297	0	-0	-0.215
Mof_C 	C 	0.47579	0	-0	0.039
Mof_Cu	Cu	0.77154	0	-0	0.892
Mof_Cu	Cu	0.68581	0	-0	0.919
Mof_N 	N 	0.61703	0	-0	-0.215
Mof_C 	C 	0.52421	0	-0	0.039
Mof_N 	N 	-6.08609e-33	0.26545	0.26545	-0.246
Mof_H 	H 	1.07345e-33	0.2863	0.2863	0.119
Mof_N 	N 	-9.62677e-33	0.73455	0.26545	-0.245
Mof_H 	H 	-2.46723e-33	0.7137	0.2863	0.12
Mof_N 	N 	-1.14086e-32	0.26545	0.73455	-0.245
Mof_H 	H 	-4.40542e-33	0.2863	0.7137	0.12
Mof_N 	N 	-1.14086e-32	0.73455	0.73455	-0.245
Mof_H 	H 	-1.14868e-32	0.7137	0.7137	0.12
Mof_N 	N 	0.26545	-3.54068e-33	0.26545	-0.246
Mof_H 	H 	0.2863	0	0.2863	0.119
Mof_N 	N 	0.26545	-7.08137e-33	0.73455	-0.245
Mof_H 	H 	0.2863	-7.08137e-33	0.7137	0.12
Mof_N 	N 	0.73455	-3.54068e-33	0.26545	-0.245
Mof_H 	H 	0.7137	0	0.2863	0.12
Mof_N 	N 	0.73455	-7.08137e-33	0.73455	-0.245
Mof_H 	H 	0.7137	-7.08137e-33	0.7137	0.12
Mof_N 	N 	0.26545	0.26545	-0	-0.246
Mof_H 	H 	0.2863	0.2863	-0	0.119
Mof_N 	N 	0.73455	0.26545	-0	-0.245
Mof_H 	H 	0.7137	0.2863	-0	0.12
Mof_N 	N 	0.26545	0.73455	-0	-0.245
Mof_H 	H 	0.2863	0.7137	-0	0.12
Mof_N 	N 	0.73455	0.73455	-0	-0.245
Mof_H 	H 	0.7137	0.7137	-0	0.12
Mof_C 	C 	-3.23762e-33	0.27237	0.08083	0.383
Mof_C 	C 	-2.17503e-33	0.27034	0.12815	-0.116
Mof_C 	C 	-4.73527e-33	0.23141	0.15356	0.014
Mof_H 	H 	-3.02402e-33	0.2042	0.1378	0.045
Mof_C 	C 	-1.02369e-33	0.23212	0.19914	-0.041
Mof_C 	C 	-2.70056e-33	0.27335	0.22407	0.155
Mof_C 	C 	-1.01788e-33	0.30904	0.20069	-0.179
Mof_H 	H 	-4.49816e-33	0.336	0.2168	0.085
Mof_C 	C 	-8.26909e-33	0.31141	0.15539	0.062
Mof_H 	H 	-8.32567e-33	0.339	0.1403	0.021
Mof_O 	O 	-5.95459e-33	0.23485	0.06444	-0.417
Mof_O 	O 	-1.97754e-33	0.30861	0.06278	-0.424
Mof_C 	C 	3.03064e-34	0.72763	0.08083	0.382
Mof_C 	C 	-1.27971e-32	0.72966	0.12815	-0.115
Mof_C 	C 	-2.96493e-33	0.76859	0.15356	0.014
Mof_H 	H 	-3.02402e-33	0.7958	0.1378	0.047
Mof_C 	C 	-9.8754e-33	0.76788	0.19914	-0.04
Mof_C 	C 	-2.0404e-32	0.72665	0.22407	0.155
Mof_C 	C 	-8.09924e-33	0.69096	0.20069	-0.179
Mof_H 	H 	-1.51202e-32	0.664	0.2168	0.085
Mof_C 	C 	-4.72841e-33	0.68859	0.15539	0.062
Mof_H 	H 	-4.78499e-33	0.661	0.1403	0.021
Mof_O 	O 	-2.4139e-33	0.76515	0.06444	-0.415
Mof_O 	O 	-5.51822e-33	0.69139	0.06278	-0.424
Mof_C 	C 	-3.63503e-33	0.27237	0.91917	0.381
Mof_C 	C 	-1.79752e-32	0.27034	0.87185	-0.113
Mof_C 	C 	-1.09891e-32	0.23141	0.84644	0.013
Mof_H 	H 	-2.50927e-32	0.2042	0.8622	0.048
Mof_C 	C 	-1.116e-32	0.23212	0.80086	-0.039
Mof_C 	C 	-1.12535e-32	0.27335	0.77593	0.155
Mof_C 	C 	-1.82472e-32	0.30904	0.79931	-0.178
Mof_H 	H 	-1.12262e-32	0.336	0.7832	0.086
Mof_C 	C 	-1.80773e-32	0.31141	0.84461	0.062
Mof_H 	H 	-1.09394e-32	0.339	0.8597	0.023
Mof_O 	O 	-3.57358e-33	0.23485	0.93556	-0.406
Mof_O 	O 	-1.06487e-32	0.30861	0.93722	-0.414
Mof_C 	C 	-3.63503e-33	0.72763	0.91917	0.381
Mof_C 	C 	-1.08938e-32	0.72966	0.87185	-0.112
Mof_C 	C 	-3.90773e-33	0.76859	0.84644	0.014
Mof_H 	H 	-1.80114e-32	0.7958	0.8622	0.049
Mof_C 	C 	-1.82414e-32	0.76788	0.80086	-0.038
Mof_C 	C 	-1.12535e-32	0.72665	0.77593	0.155
Mof_C 	C 	-4.08444e-33	0.69096	0.79931	-0.178
Mof_H 	H 	-1.83076e-32	0.664	0.7832	0.086
Mof_C 	C 	-3.91459e-33	0.68859	0.84461	0.062
Mof_H 	H 	-1.09394e-32	0.661	0.8597	0.023
Mof_O 	O 	-1.06549e-32	0.76515	0.93556	-0.405
Mof_O 	O 	-1.77301e-32	0.69139	0.93722	-0.414
Mof_C 	C 	0.08083	0	0.27237	0.383
Mof_C 	C 	0.12815	-3.54068e-33	0.27034	-0.116
Mof_C 	C 	0.15356	-1.77034e-33	0.23141	0.014
Mof_H 	H 	0.1378	-1.77034e-33	0.2042	0.045
Mof_C 	C 	0.19914	-1.77034e-33	0.23212	-0.041
Mof_C 	C 	0.22407	0	0.27335	0.155
Mof_C 	C 	0.20069	-3.54068e-33	0.30904	-0.179
Mof_H 	H 	0.2168	-3.54068e-33	0.336	0.085
Mof_C 	C 	0.15539	0	0.31141	0.062
Mof_H 	H 	0.1403	-3.54068e-33	0.339	0.021
Mof_O 	O 	0.06444	-1.77034e-33	0.23485	-0.417
Mof_O 	O 	0.06278	-3.54068e-33	0.30861	-0.424
Mof_C 	C 	0.08083	-7.08137e-33	0.72763	0.382
Mof_C 	C 	0.12815	-7.08137e-33	0.72966	-0.115
Mof_C 	C 	0.15356	0	0.76859	0.014
Mof_H 	H 	0.1378	-7.08137e-33	0.7958	0.047
Mof_C 	C 	0.19914	-7.08137e-33	0.76788	-0.04
Mof_C 	C 	0.22407	-7.08137e-33	0.72665	0.155
Mof_C 	C 	0.20069	-7.08137e-33	0.69096	-0.179
Mof_H 	H 	0.2168	-7.08137e-33	0.664	0.085
Mof_C 	C 	0.15539	0	0.68859	0.062
Mof_H 	H 	0.1403	-7.08137e-33	0.661	0.021
Mof_O 	O 	0.06444	-7.08137e-33	0.76515	-0.415
Mof_O 	O 	0.06278	-7.08137e-33	0.69139	-0.424
Mof_C 	C 	0.91917	0	0.27237	0.381
Mof_C 	C 	0.87185	-3.54068e-33	0.27034	-0.113
Mof_C 	C 	0.84644	-1.77034e-33	0.23141	0.013
Mof_H 	H 	0.8622	-1.77034e-33	0.2042	0.048
Mof_C 	C 	0.80086	-1.77034e-33	0.23212	-0.039
Mof_C 	C 	0.77593	0	0.27335	0.155
Mof_C 	C 	0.79931	-3.54068e-33	0.30904	-0.178
Mof_H 	H 	0.7832	-3.54068e-33	0.336	0.086
Mof_C 	C 	0.84461	0	0.31141	0.062
Mof_H 	H 	0.8597	-3.54068e-33	0.339	0.023
Mof_O 	O 	0.93556	-1.77034e-33	0.23485	-0.406
Mof_O 	O 	0.93722	-3.54068e-33	0.30861	-0.414
Mof_C 	C 	0.91917	-7.08137e-33	0.72763	0.381
Mof_C 	C 	0.87185	-7.08137e-33	0.72966	-0.112
Mof_C 	C 	0.84644	0	0.76859	0.014
Mof_H 	H 	0.8622	-7.08137e-33	0.7958	0.049
Mof_C 	C 	0.80086	-7.08137e-33	0.76788	-0.038
Mof_C 	C 	0.77593	-7.08137e-33	0.72665	0.155
Mof_C 	C 	0.79931	-7.08137e-33	0.69096	-0.178
Mof_H 	H 	0.7832	-7.08137e-33	0.664	0.086
Mof_C 	C 	0.84461	0	0.68859	0.062
Mof_H 	H 	0.8597	-7.08137e-33	0.661	0.023
Mof_O 	O 	0.93556	-7.08137e-33	0.76515	-0.405
Mof_O 	O 	0.93722	-7.08137e-33	0.69139	-0.414
Mof_C 	C 	0.27237	0.08083	-0	0.383
Mof_C 	C 	0.27034	0.12815	-0	-0.116
Mof_C 	C 	0.23141	0.15356	-0	0.014
Mof_H 	H 	0.2042	0.1378	-0	0.045
Mof_C 	C 	0.23212	0.19914	-0	-0.041
Mof_C 	C 	0.27335	0.22407	-0	0.155
Mof_C 	C 	0.30904	0.20069	-0	-0.179
Mof_H 	H 	0.336	0.2168	-0	0.085
Mof_C 	C 	0.31141	0.15539	-0	0.062
Mof_H 	H 	0.339	0.1403	-0	0.021
Mof_O 	O 	0.23485	0.06444	-0	-0.417
Mof_O 	O 	0.30861	0.06278	-0	-0.424
Mof_C 	C 	0.72763	0.08083	-0	0.382
Mof_C 	C 	0.72966	0.12815	-0	-0.115
Mof_C 	C 	0.76859	0.15356	-0	0.014
Mof_H 	H 	0.7958	0.1378	-0	0.047
Mof_C 	C 	0.76788	0.19914	-0	-0.04
Mof_C 	C 	0.72665	0.22407	-0	0.155
Mof_C 	C 	0.69096	0.20069	-0	-0.179
Mof_H 	H 	0.664	0.2168	-0	0.085
Mof_C 	C 	0.68859	0.15539	-0	0.062
Mof_H 	H 	0.661	0.1403	-0	0.021
Mof_O 	O 	0.76515	0.06444	-0	-0.415
Mof_O 	O 	0.69139	0.06278	-0	-0.424
Mof_C 	C 	0.27237	0.91917	-0	0.381
Mof_C 	C 	0.27034	0.87185	-0	-0.113
Mof_C 	C 	0.23141	0.84644	-0	0.013
Mof_H 	H 	0.2042	0.8622	-0	0.048
Mof_C 	C 	0.23212	0.80086	-0	-0.039
Mof_C 	C 	0.27335	0.77593	-0	0.155
Mof_C 	C 	0.30904	0.79931	-0	-0.178
Mof_H 	H 	0.336	0.7832	-0	0.086
Mof_C 	C 	0.31141	0.84461	-0	0.062
Mof_H 	H 	0.339	0.8597	-0	0.023
Mof_O 	O 	0.23485	0.93556	-0	-0.406
Mof_O 	O 	0.30861	0.93722	-0	-0.414
Mof_C 	C 	0.72763	0.91917	-0	0.381
Mof_C 	C 	0.72966	0.87185	-0	-0.112
Mof_C 	C 	0.76859	0.84644	-0	0.014
Mof_H 	H 	0.7958	0.8622	-0	0.049
Mof_C 	C 	0.76788	0.80086	-0	-0.038
Mof_C 	C 	0.72665	0.77593	-0	0.155
Mof_C 	C 	0.69096	0.79931	-0	-0.178
Mof_H 	H 	0.664	0.7832	-0	0.086
Mof_C 	C 	0.68859	0.84461	-0	0.062
Mof_H 	H 	0.661	0.8597	-0	0.023
Mof_O 	O 	0.76515	0.93556	-0	-0.405
Mof_O 	O 	0.69139	0.93722	-0	-0.414
Mof_C 	C 	0.27237	-7.08137e-33	0.91917	0.381
Mof_C 	C 	0.27034	-7.08137e-33	0.87185	-0.113
Mof_C 	C 	0.23141	0	0.84644	0.013
Mof_H 	H 	0.2042	-7.08137e-33	0.8622	0.048
Mof_C 	C 	0.23212	-7.08137e-33	0.80086	-0.039
Mof_C 	C 	0.27335	-7.08137e-33	0.77593	0.155
Mof_C 	C 	0.30904	-1.41627e-32	0.79931	-0.178
Mof_H 	H 	0.336	-7.08137e-33	0.7832	0.086
Mof_C 	C 	0.31141	-7.08137e-33	0.84461	0.062
Mof_H 	H 	0.339	-7.08137e-33	0.8597	0.023
Mof_O 	O 	0.23485	-1.41627e-32	0.93556	-0.406
Mof_O 	O 	0.30861	-7.08137e-33	0.93722	-0.414
Mof_C 	C 	0.72763	-7.08137e-33	0.91917	0.381
Mof_C 	C 	0.72966	-7.08137e-33	0.87185	-0.112
Mof_C 	C 	0.76859	0	0.84644	0.014
Mof_H 	H 	0.7958	-7.08137e-33	0.8622	0.049
Mof_C 	C 	0.76788	-7.08137e-33	0.80086	-0.038
Mof_C 	C 	0.72665	-7.08137e-33	0.77593	0.155
Mof_C 	C 	0.69096	-1.41627e-32	0.79931	-0.178
Mof_H 	H 	0.664	-7.08137e-33	0.7832	0.086
Mof_C 	C 	0.68859	-7.08137e-33	0.84461	0.062
Mof_H 	H 	0.661	-7.08137e-33	0.8597	0.023
Mof_O 	O 	0.76515	-1.41627e-32	0.93556	-0.405
Mof_O 	O 	0.69139	-7.08137e-33	0.93722	-0.414
Mof_C 	C 	0.27237	-8.85171e-34	0.08083	0.383
Mof_C 	C 	0.27034	0	0.12815	-0.116
Mof_C 	C 	0.23141	-1.77034e-33	0.15356	0.014
Mof_H 	H 	0.2042	-1.77034e-33	0.1378	0.045
Mof_C 	C 	0.23212	-1.77034e-33	0.19914	-0.041
Mof_C 	C 	0.27335	-1.77034e-33	0.22407	0.155
Mof_C 	C 	0.30904	-1.77034e-33	0.20069	-0.179
Mof_H 	H 	0.336	-1.77034e-33	0.2168	0.085
Mof_C 	C 	0.31141	-1.77034e-33	0.15539	0.062
Mof_H 	H 	0.339	-1.77034e-33	0.1403	0.021
Mof_O 	O 	0.23485	-8.85171e-34	0.06444	-0.417
Mof_O 	O 	0.30861	4.42586e-34	0.06278	-0.424
Mof_C 	C 	0.72763	-8.85171e-34	0.08083	0.382
Mof_C 	C 	0.72966	0	0.12815	-0.115
Mof_C 	C 	0.76859	-1.77034e-33	0.15356	0.014
Mof_H 	H 	0.7958	-1.77034e-33	0.1378	0.047
Mof_C 	C 	0.76788	-1.77034e-33	0.19914	-0.04
Mof_C 	C 	0.72665	-1.77034e-33	0.22407	0.155
Mof_C 	C 	0.69096	-1.77034e-33	0.20069	-0.179
Mof_H 	H 	0.664	-1.77034e-33	0.2168	0.085
Mof_C 	C 	0.68859	-1.77034e-33	0.15539	0.062
Mof_H 	H 	0.661	-1.77034e-33	0.1403	0.021
Mof_O 	O 	0.76515	-8.85171e-34	0.06444	-0.415
Mof_O 	O 	0.69139	4.42586e-34	0.06278	-0.424
Mof_C 	C 	2.72818e-33	0.08083	0.72763	0.382
Mof_C 	C 	-1.1427e-32	0.12815	0.72966	-0.115
Mof_C 	C 	-4.19962e-33	0.15356	0.76859	0.014
Mof_H 	H 	-4.0976e-33	0.1378	0.7958	0.047
Mof_C 	C 	-1.12836e-32	0.19914	0.76788	-0.04
Mof_C 	C 	-2.5601e-32	0.22407	0.72665	0.155
Mof_C 	C 	-1.15721e-32	0.20069	0.69096	-0.179
Mof_H 	H 	-1.16731e-32	0.2168	0.664	0.085
Mof_C 	C 	-4.49957e-33	0.15539	0.68859	0.062
Mof_H 	H 	-4.60302e-33	0.1403	0.661	0.021
Mof_O 	O 	-4.21252e-33	0.06444	0.76515	-0.415
Mof_O 	O 	-4.48907e-33	0.06278	0.69139	-0.424
Mof_C 	C 	-2.51946e-33	0.08083	0.27237	0.383
Mof_C 	C 	-2.52707e-33	0.12815	0.27034	-0.116
Mof_C 	C 	-4.44338e-33	0.15356	0.23141	0.014
Mof_H 	H 	-2.77506e-33	0.1378	0.2042	0.045
Mof_C 	C 	-9.00032e-34	0.19914	0.23212	-0.041
Mof_C 	C 	-2.51579e-33	0.22407	0.27335	0.155
Mof_C 	C 	-2.38197e-33	0.20069	0.30904	-0.179
Mof_H 	H 	-5.82157e-33	0.2168	0.336	0.085
Mof_C 	C 	-9.45445e-33	0.15539	0.31141	0.062
Mof_H 	H 	-9.35101e-33	0.1403	0.339	0.021
Mof_O 	O 	-6.20082e-33	0.06444	0.23485	-0.417
Mof_O 	O 	-2.38358e-33	0.06278	0.30861	-0.424
Mof_C 	C 	-4.35319e-33	0.91917	0.72763	0.381
Mof_C 	C 	-1.1427e-32	0.87185	0.72966	-0.112
Mof_C 	C 	-4.19962e-33	0.84644	0.76859	0.014
Mof_H 	H 	-1.82603e-32	0.8622	0.7958	0.049
Mof_C 	C 	-1.8365e-32	0.80086	0.76788	-0.038
Mof_C 	C 	-1.14382e-32	0.77593	0.72665	0.155
Mof_C 	C 	-4.49068e-33	0.79931	0.69096	-0.178
Mof_H 	H 	-1.87545e-32	0.7832	0.664	0.086
Mof_C 	C 	-4.49957e-33	0.84461	0.68859	0.062
Mof_H 	H 	-1.16844e-32	0.8597	0.661	0.023
Mof_O 	O 	-1.12939e-32	0.93556	0.76515	-0.405
Mof_O 	O 	-1.86518e-32	0.93722	0.69139	-0.414
Mof_C 	C 	1.02122e-33	0.91917	0.27237	0.381
Mof_C 	C 	-2.02305e-32	0.87185	0.27034	-0.113
Mof_C 	C 	-1.15247e-32	0.84644	0.23141	0.013
Mof_H 	H 	-2.40192e-32	0.8622	0.2042	0.048
Mof_C 	C 	-1.15221e-32	0.80086	0.23212	-0.039
Mof_C 	C 	-9.59715e-33	0.77593	0.27335	0.155
Mof_C 	C 	-1.3004e-32	0.79931	0.30904	-0.178
Mof_H 	H 	-9.36225e-33	0.7832	0.336	0.086
Mof_C 	C 	-1.65358e-32	0.84461	0.31141	0.062
Mof_H 	H 	-1.28917e-32	0.8597	0.339	0.023
Mof_O 	O 	-2.66014e-33	0.93556	0.23485	-0.406
Mof_O 	O 	-9.46495e-33	0.93722	0.30861	-0.414
Mof_C 	C 	0.08083	0.27237	-0	0.383
Mof_C 	C 	0.12815	0.27034	-0	-0.116
Mof_C 	C 	0.15356	0.23141	-0	0.014
Mof_H 	H 	0.1378	0.2042	-0	0.045
Mof_C 	C 	0.19914	0.23212	-0	-0.041
Mof_C 	C 	0.22407	0.27335	-0	0.155
Mof_C 	C 	0.20069	0.30904	-0	-0.179
Mof_H 	H 	0.2168	0.336	-0	0.085
Mof_C 	C 	0.15539	0.31141	-0	0.062
Mof_H 	H 	0.1403	0.339	-0	0.021
Mof_O 	O 	0.06444	0.23485	-0	-0.417
Mof_O 	O 	0.06278	0.30861	-0	-0.424
Mof_C 	C 	0.08083	0.72763	-0	0.382
Mof_C 	C 	0.12815	0.72966	-0	-0.115
Mof_C 	C 	0.15356	0.76859	-0	0.014
Mof_H 	H 	0.1378	0.7958	-0	0.047
Mof_C 	C 	0.19914	0.76788	-0	-0.04
Mof_C 	C 	0.22407	0.72665	-0	0.155
Mof_C 	C 	0.20069	0.69096	-0	-0.179
Mof_H 	H 	0.2168	0.664	-0	0.085
Mof_C 	C 	0.15539	0.68859	-0	0.062
Mof_H 	H 	0.1403	0.661	-0	0.021
Mof_O 	O 	0.06444	0.76515	-0	-0.415
Mof_O 	O 	0.06278	0.69139	-0	-0.424
Mof_C 	C 	0.91917	0.27237	-0	0.381
Mof_C 	C 	0.87185	0.27034	-0	-0.113
Mof_C 	C 	0.84644	0.23141	-0	0.013
Mof_H 	H 	0.8622	0.2042	-0	0.048
Mof_C 	C 	0.80086	0.23212	-0	-0.039
Mof_C 	C 	0.77593	0.27335	-0	0.155
Mof_C 	C 	0.79931	0.30904	-0	-0.178
Mof_H 	H 	0.7832	0.336	-0	0.086
Mof_C 	C 	0.84461	0.31141	-0	0.062
Mof_H 	H 	0.8597	0.339	-0	0.023
Mof_O 	O 	0.93556	0.23485	-0	-0.406
Mof_O 	O 	0.93722	0.30861	-0	-0.414
Mof_C 	C 	0.91917	0.72763	-0	0.381
Mof_C 	C 	0.87185	0.72966	-0	-0.112
Mof_C 	C 	0.84644	0.76859	-0	0.014
Mof_H 	H 	0.8622	0.7958	-0	0.049
Mof_C 	C 	0.80086	0.76788	-0	-0.038
Mof_C 	C 	0.77593	0.72665	-0	0.155
Mof_C 	C 	0.79931	0.69096	-0	-0.178
Mof_H 	H 	0.7832	0.664	-0	0.086
Mof_C 	C 	0.84461	0.68859	-0	0.062
Mof_H 	H 	0.8597	0.661	-0	0.023
Mof_O 	O 	0.93556	0.76515	-0	-0.405
Mof_O 	O 	0.93722	0.69139	-0	-0.414
Mof_C 	C 	0.03488	0.40558	-0	0.03
Mof_H 	H 	0.0616	0.3891	-0	0.025
Mof_C 	C 	0.0346	0.4511	-0	-0.074
Mof_H 	H 	0.063	0.4645	-0	0.045
Mof_C 	C 	0.96512	0.59442	-0	0.047
Mof_H 	H 	0.9384	0.6109	-0	0.024
Mof_C 	C 	0.9654	0.5489	-0	-0.057
Mof_H 	H 	0.937	0.5355	-0	0.044
Mof_C 	C 	0.96512	0.40558	-0	0.047
Mof_H 	H 	0.9384	0.3891	-0	0.024
Mof_C 	C 	0.9654	0.4511	-0	-0.057
Mof_H 	H 	0.937	0.4645	-0	0.044
Mof_C 	C 	0.03488	0.59442	-0	0.03
Mof_H 	H 	0.0616	0.6109	-0	0.025
Mof_C 	C 	0.0346	0.5489	-0	-0.074
Mof_H 	H 	0.063	0.5355	-0	0.045
Mof_C 	C 	-2.02e-33	0.03488	0.40558	0.03
Mof_H 	H 	-5.62248e-33	0.0616	0.3891	0.025
Mof_C 	C 	-1.84933e-33	0.0346	0.4511	-0.074
Mof_H 	H 	-8.88046e-33	0.063	0.4645	0.045
Mof_C 	C 	-4.85265e-33	0.96512	0.59442	0.047
Mof_H 	H 	-1.89536e-32	0.9384	0.6109	0.024
Mof_C 	C 	-5.02332e-33	0.9654	0.5489	-0.057
Mof_H 	H 	-5.07357e-33	0.937	0.5355	0.044
Mof_C 	C 	-5.56069e-33	0.96512	0.40558	0.047
Mof_H 	H 	-1.62445e-32	0.9384	0.3891	0.024
Mof_C 	C 	1.69135e-33	0.9654	0.4511	-0.057
Mof_H 	H 	-8.88046e-33	0.937	0.4645	0.044
Mof_C 	C 	2.22872e-33	0.03488	0.59442	0.03
Mof_H 	H 	-4.79086e-33	0.0616	0.6109	0.025
Mof_C 	C 	-5.02332e-33	0.0346	0.5489	-0.074
Mof_H 	H 	-5.07357e-33	0.063	0.5355	0.045
Mof_C 	C 	0.40558	0	0.03488	0.03
Mof_H 	H 	0.3891	-8.85171e-34	0.0616	0.025
Mof_C 	C 	0.4511	-4.42586e-34	0.0346	-0.074
Mof_H 	H 	0.4645	-8.85171e-34	0.063	0.045
Mof_C 	C 	0.59442	-7.08137e-33	0.96512	0.047
Mof_H 	H 	0.6109	-7.08137e-33	0.9384	0.024
Mof_C 	C 	0.5489	-7.08137e-33	0.9654	-0.057
Mof_H 	H 	0.5355	-1.41627e-32	0.937	0.044
Mof_C 	C 	0.40558	-7.08137e-33	0.96512	0.047
Mof_H 	H 	0.3891	-7.08137e-33	0.9384	0.024
Mof_C 	C 	0.4511	-7.08137e-33	0.9654	-0.057
Mof_H 	H 	0.4645	-1.41627e-32	0.937	0.044
Mof_C 	C 	0.59442	0	0.03488	0.03
Mof_H 	H 	0.6109	-8.85171e-34	0.0616	0.025
Mof_C 	C 	0.5489	-4.42586e-34	0.0346	-0.074
Mof_H 	H 	0.5355	-8.85171e-34	0.063	0.045
Mof_C 	C 	0.40558	0.03488	-0	0.03
Mof_H 	H 	0.3891	0.0616	-0	0.025
Mof_C 	C 	0.4511	0.0346	-0	-0.074
Mof_H 	H 	0.4645	0.063	-0	0.045
Mof_C 	C 	0.59442	0.96512	-0	0.047
Mof_H 	H 	0.6109	0.9384	-0	0.024
Mof_C 	C 	0.5489	0.9654	-0	-0.057
Mof_H 	H 	0.5355	0.937	-0	0.044
Mof_C 	C 	0.40558	0.96512	-0	0.047
Mof_H 	H 	0.3891	0.9384	-0	0.024
Mof_C 	C 	0.4511	0.9654	-0	-0.057
Mof_H 	H 	0.4645	0.937	-0	0.044
Mof_C 	C 	0.59442	0.03488	-0	0.03
Mof_H 	H 	0.6109	0.0616	-0	0.025
Mof_C 	C 	0.5489	0.0346	-0	-0.074
Mof_H 	H 	0.5355	0.063	-0	0.045
Mof_C 	C 	0.03488	-7.08137e-33	0.59442	0.03
Mof_H 	H 	0.0616	-7.08137e-33	0.6109	0.025
Mof_C 	C 	0.0346	0	0.5489	-0.074
Mof_H 	H 	0.063	0	0.5355	0.045
Mof_C 	C 	0.96512	-3.54068e-33	0.40558	0.047
Mof_H 	H 	0.9384	0	0.3891	0.024
Mof_C 	C 	0.9654	-3.54068e-33	0.4511	-0.057
Mof_H 	H 	0.937	0	0.4645	0.044
Mof_C 	C 	0.96512	-7.08137e-33	0.59442	0.047
Mof_H 	H 	0.9384	-7.08137e-33	0.6109	0.024
Mof_C 	C 	0.9654	0	0.5489	-0.057
Mof_H 	H 	0.937	0	0.5355	0.044
Mof_C 	C 	0.03488	-3.54068e-33	0.40558	0.03
Mof_H 	H 	0.0616	0	0.3891	0.025
Mof_C 	C 	0.0346	-3.54068e-33	0.4511	-0.074
Mof_H 	H 	0.063	0	0.4645	0.045
Mof_C 	C 	-3.46275e-33	0.40558	0.96512	0.047
Mof_H 	H 	-1.77257e-32	0.3891	0.9384	0.024
Mof_C 	C 	3.61967e-33	0.4511	0.9654	-0.057
Mof_H 	H 	-1.06495e-32	0.4645	0.937	0.044
Mof_C 	C 	5.88439e-33	0.59442	0.03488	0.03
Mof_H 	H 	-6.40782e-33	0.6109	0.0616	0.025
Mof_C 	C 	-4.73871e-33	0.5489	0.0346	-0.074
Mof_H 	H 	-3.74706e-33	0.5355	0.063	0.045
Mof_C 	C 	-1.19698e-33	0.40558	0.03488	0.03
Mof_H 	H 	-6.40782e-33	0.3891	0.0616	0.025
Mof_C 	C 	-1.19803e-33	0.4511	0.0346	-0.074
Mof_H 	H 	-7.28774e-33	0.4645	0.063	0.045
Mof_C 	C 	-1.05441e-32	0.59442	0.96512	0.047
Mof_H 	H 	-1.77257e-32	0.6109	0.9384	0.024
Mof_C 	C 	-1.05431e-32	0.5489	0.9654	-0.057
Mof_H 	H 	-3.56818e-33	0.5355	0.937	0.044
Mof_Cu	Cu	0.5	0.72846	0.5	0.898
Mof_Cu	Cu	0.5	0.81419	0.5	0.925
Mof_N 	N 	0.5	0.88297	0.5	-0.213
Mof_C 	C 	0.5	0.97579	0.5	0.12
Mof_Cu	Cu	0.5	0.27154	0.5	0.898
Mof_Cu	Cu	0.5	0.18581	0.5	0.925
Mof_N 	N 	0.5	0.11703	0.5	-0.198
Mof_C 	C 	0.5	0.02421	0.5	0.001
Mof_Cu	Cu	0.5	0.5	0.72846	0.898
Mof_Cu	Cu	0.5	0.5	0.81419	0.925
Mof_N 	N 	0.5	0.5	0.88297	-0.213
Mof_C 	C 	0.5	0.5	0.97579	0.12
Mof_Cu	Cu	0.5	0.5	0.27154	0.898
Mof_Cu	Cu	0.5	0.5	0.18581	0.925
Mof_N 	N 	0.5	0.5	0.11703	-0.198
Mof_C 	C 	0.5	0.5	0.02421	0.001
Mof_Cu	Cu	0.72846	0.5	0.5	0.898
Mof_Cu	Cu	0.81419	0.5	0.5	0.925
Mof_N 	N 	0.88297	0.5	0.5	-0.213
Mof_C 	C 	0.97579	0.5	0.5	0.12
Mof_Cu	Cu	0.27154	0.5	0.5	0.898
Mof_Cu	Cu	0.18581	0.5	0.5	0.925
Mof_N 	N 	0.11703	0.5	0.5	-0.198
Mof_C 	C 	0.02421	0.5	0.5	0.001
Mof_N 	N 	0.5	0.76545	0.76545	-0.247
Mof_H 	H 	0.5	0.7863	0.7863	0.125
Mof_N 	N 	0.5	0.23455	0.76545	-0.246
Mof_H 	H 	0.5	0.2137	0.7863	0.123
Mof_N 	N 	0.5	0.76545	0.23455	-0.246
Mof_H 	H 	0.5	0.7863	0.2137	0.123
Mof_N 	N 	0.5	0.23455	0.23455	-0.246
Mof_H 	H 	0.5	0.2137	0.2137	0.121
Mof_N 	N 	0.76545	0.5	0.76545	-0.247
Mof_H 	H 	0.7863	0.5	0.7863	0.125
Mof_N 	N 	0.76545	0.5	0.23455	-0.246
Mof_H 	H 	0.7863	0.5	0.2137	0.123
Mof_N 	N 	0.23455	0.5	0.76545	-0.246
Mof_H 	H 	0.2137	0.5	0.7863	0.123
Mof_N 	N 	0.23455	0.5	0.23455	-0.246
Mof_H 	H 	0.2137	0.5	0.2137	0.121
Mof_N 	N 	0.76545	0.76545	0.5	-0.247
Mof_H 	H 	0.7863	0.7863	0.5	0.125
Mof_N 	N 	0.23455	0.76545	0.5	-0.246
Mof_H 	H 	0.2137	0.7863	0.5	0.123
Mof_N 	N 	0.76545	0.23455	0.5	-0.246
Mof_H 	H 	0.7863	0.2137	0.5	0.123
Mof_N 	N 	0.23455	0.23455	0.5	-0.246
Mof_H 	H 	0.2137	0.2137	0.5	0.121
Mof_C 	C 	0.5	0.77237	0.58083	0.383
Mof_C 	C 	0.5	0.77034	0.62815	-0.114
Mof_C 	C 	0.5	0.73141	0.65356	0.015
Mof_H 	H 	0.5	0.7042	0.6378	0.047
Mof_C 	C 	0.5	0.73212	0.69914	-0.039
Mof_C 	C 	0.5	0.77335	0.72407	0.159
Mof_C 	C 	0.5	0.80904	0.70069	-0.18
Mof_H 	H 	0.5	0.836	0.7168	0.091
Mof_C 	C 	0.5	0.81141	0.65539	0.065
Mof_H 	H 	0.5	0.839	0.6403	0.023
Mof_O 	O 	0.5	0.73485	0.56444	-0.412
Mof_O 	O 	0.5	0.80861	0.56278	-0.42
Mof_C 	C 	0.5	0.22763	0.58083	0.383
Mof_C 	C 	0.5	0.22966	0.62815	-0.114
Mof_C 	C 	0.5	0.26859	0.65356	0.015
Mof_H 	H 	0.5	0.2958	0.6378	0.047
Mof_C 	C 	0.5	0.26788	0.69914	-0.039
Mof_C 	C 	0.5	0.22665	0.72407	0.157
Mof_C 	C 	0.5	0.19096	0.70069	-0.179
Mof_H 	H 	0.5	0.164	0.7168	0.087
Mof_C 	C 	0.5	0.18859	0.65539	0.063
Mof_H 	H 	0.5	0.161	0.6403	0.021
Mof_O 	O 	0.5	0.26515	0.56444	-0.412
Mof_O 	O 	0.5	0.19139	0.56278	-0.421
Mof_C 	C 	0.5	0.77237	0.41917	0.383
Mof_C 	C 	0.5	0.77034	0.37185	-0.114
Mof_C 	C 	0.5	0.73141	0.34644	0.015
Mof_H 	H 	0.5	0.7042	0.3622	0.047
Mof_C 	C 	0.5	0.73212	0.30086	-0.039
Mof_C 	C 	0.5	0.77335	0.27593	0.158
Mof_C 	C 	0.5	0.80904	0.29931	-0.179
Mof_H 	H 	0.5	0.836	0.2832	0.09
Mof_C 	C 	0.5	0.81141	0.34461	0.064
Mof_H 	H 	0.5	0.839	0.3597	0.023
Mof_O 	O 	0.5	0.73485	0.43556	-0.412
Mof_O 	O 	0.5	0.80861	0.43722	-0.42
Mof_C 	C 	0.5	0.22763	0.41917	0.383
Mof_C 	C 	0.5	0.22966	0.37185	-0.114
Mof_C 	C 	0.5	0.26859	0.34644	0.014
Mof_H 	H 	0.5	0.2958	0.3622	0.047
Mof_C 	C 	0.5	0.26788	0.30086	-0.039
Mof_C 	C 	0.5	0.22665	0.27593	0.156
Mof_C 	C 	0.5	0.19096	0.29931	-0.179
Mof_H 	H 	0.5	0.164	0.2832	0.086
Mof_C 	C 	0.5	0.18859	0.34461	0.063
Mof_H 	H 	0.5	0.161	0.3597	0.021
Mof_O 	O 	0.5	0.26515	0.43556	-0.412
Mof_O 	O 	0.5	0.19139	0.43722	-0.421
Mof_C 	C 	0.58083	0.5	0.77237	0.383
Mof_C 	C 	0.62815	0.5	0.77034	-0.114
Mof_C 	C 	0.65356	0.5	0.73141	0.015
Mof_H 	H 	0.6378	0.5	0.7042	0.047
Mof_C 	C 	0.69914	0.5	0.73212	-0.039
Mof_C 	C 	0.72407	0.5	0.77335	0.159
Mof_C 	C 	0.70069	0.5	0.80904	-0.18
Mof_H 	H 	0.7168	0.5	0.836	0.091
Mof_C 	C 	0.65539	0.5	0.81141	0.065
Mof_H 	H 	0.6403	0.5	0.839	0.023
Mof_O 	O 	0.56444	0.5	0.73485	-0.412
Mof_O 	O 	0.56278	0.5	0.80861	-0.42
Mof_C 	C 	0.58083	0.5	0.22763	0.383
Mof_C 	C 	0.62815	0.5	0.22966	-0.114
Mof_C 	C 	0.65356	0.5	0.26859	0.015
Mof_H 	H 	0.6378	0.5	0.2958	0.047
Mof_C 	C 	0.69914	0.5	0.26788	-0.039
Mof_C 	C 	0.72407	0.5	0.22665	0.157
Mof_C 	C 	0.70069	0.5	0.19096	-0.179
Mof_H 	H 	0.7168	0.5	0.164	0.087
Mof_C 	C 	0.65539	0.5	0.18859	0.063
Mof_H 	H 	0.6403	0.5	0.161	0.021
Mof_O 	O 	0.56444	0.5	0.26515	-0.412
Mof_O 	O 	0.56278	0.5	0.19139	-0.421
Mof_C 	C 	0.41917	0.5	0.77237	0.383
Mof_C 	C 	0.37185	0.5	0.77034	-0.114
Mof_C 	C 	0.34644	0.5	0.73141	0.015
Mof_H 	H 	0.3622	0.5	0.7042	0.047
Mof_C 	C 	0.30086	0.5	0.73212	-0.039
Mof_C 	C 	0.27593	0.5	0.77335	0.158
Mof_C 	C 	0.29931	0.5	0.80904	-0.179
Mof_H 	H 	0.2832	0.5	0.836	0.09
Mof_C 	C 	0.34461	0.5	0.81141	0.064
Mof_H 	H 	0.3597	0.5	0.839	0.023
Mof_O 	O 	0.43556	0.5	0.73485	-0.412
Mof_O 	O 	0.43722	0.5	0.80861	-0.42
Mof_C 	C 	0.41917	0.5	0.22763	0.383
Mof_C 	C 	0.37185	0.5	0.22966	-0.114
Mof_C 	C 	0.34644	0.5	0.26859	0.014
Mof_H 	H 	0.3622	0.5	0.2958	0.047
Mof_C 	C 	0.30086	0.5	0.26788	-0.039
Mof_C 	C 	0.27593	0.5	0.22665	0.156
Mof_C 	C 	0.29931	0.5	0.19096	-0.179
Mof_H 	H 	0.2832	0.5	0.164	0.086
Mof_C 	C 	0.34461	0.5	0.18859	0.063
Mof_H 	H 	0.3597	0.5	0.161	0.021
Mof_O 	O 	0.43556	0.5	0.26515	-0.412
Mof_O 	O 	0.43722	0.5	0.19139	-0.421
Mof_C 	C 	0.77237	0.58083	0.5	0.383
Mof_C 	C 	0.77034	0.62815	0.5	-0.114
Mof_C 	C 	0.73141	0.65356	0.5	0.015
Mof_H 	H 	0.7042	0.6378	0.5	0.047
Mof_C 	C 	0.73212	0.69914	0.5	-0.039
Mof_C 	C 	0.77335	0.72407	0.5	0.159
Mof_C 	C 	0.80904	0.70069	0.5	-0.18
Mof_H 	H 	0.836	0.7168	0.5	0.091
Mof_C 	C 	0.81141	0.65539	0.5	0.065
Mof_H 	H 	0.839	0.6403	0.5	0.023
Mof_O 	O 	0.73485	0.56444	0.5	-0.412
Mof_O 	O 	0.80861	0.56278	0.5	-0.42
Mof_C 	C 	0.22763	0.58083	0.5	0.383
Mof_C 	C 	0.22966	0.62815	0.5	-0.114
Mof_C 	C 	0.26859	0.65356	0.5	0.015
Mof_H 	H 	0.2958	0.6378	0.5	0.047
Mof_C 	C 	0.26788	0.69914	0.5	-0.039
Mof_C 	C 	0.22665	0.72407	0.5	0.157
Mof_C 	C 	0.19096	0.70069	0.5	-0.179
Mof_H 	H 	0.164	0.7168	0.5	0.087
Mof_C 	C 	0.18859	0.65539	0.5	0.063
Mof_H 	H 	0.161	0.6403	0.5	0.021
Mof_O 	O 	0.26515	0.56444	0.5	-0.412
Mof_O 	O 	0.19139	0.56278	0.5	-0.421
Mof_C 	C 	0.77237	0.41917	0.5	0.383
Mof_C 	C 	0.77034	0.37185	0.5	-0.114
Mof_C 	C 	0.73141	0.34644	0.5	0.015
Mof_H 	H 	0.7042	0.3622	0.5	0.047
Mof_C 	C 	0.73212	0.30086	0.5	-0.039
Mof_C 	C 	0.77335	0.27593	0.5	0.158
Mof_C 	C 	0.80904	0.29931	0.5	-0.179
Mof_H 	H 	0.836	0.2832	0.5	0.09
Mof_C 	C 	0.81141	0.34461	0.5	0.064
Mof_H 	H 	0.839	0.3597	0.5	0.023
Mof_O 	O 	0.73485	0.43556	0.5	-0.412
Mof_O 	O 	0.80861	0.43722	0.5	-0.42
Mof_C 	C 	0.22763	0.41917	0.5	0.383
Mof_C 	C 	0.22966	0.37185	0.5	-0.114
Mof_C 	C 	0.26859	0.34644	0.5	0.014
Mof_H 	H 	0.2958	0.3622	0.5	0.047
Mof_C 	C 	0.26788	0.30086	0.5	-0.039
Mof_C 	C 	0.22665	0.27593	0.5	0.156
Mof_C 	C 	0.19096	0.29931	0.5	-0.179
Mof_H 	H 	0.164	0.2832	0.5	0.086
Mof_C 	C 	0.18859	0.34461	0.5	0.063
Mof_H 	H 	0.161	0.3597	0.5	0.021
Mof_O 	O 	0.26515	0.43556	0.5	-0.412
Mof_O 	O 	0.19139	0.43722	0.5	-0.421
Mof_C 	C 	0.77237	0.5	0.41917	0.383
Mof_C 	C 	0.77034	0.5	0.37185	-0.114
Mof_C 	C 	0.73141	0.5	0.34644	0.015
Mof_H 	H 	0.7042	0.5	0.3622	0.047
Mof_C 	C 	0.73212	0.5	0.30086	-0.039
Mof_C 	C 	0.77335	0.5	0.27593	0.158
Mof_C 	C 	0.80904	0.5	0.29931	-0.179
Mof_H 	H 	0.836	0.5	0.2832	0.09
Mof_C 	C 	0.81141	0.5	0.34461	0.064
Mof_H 	H 	0.839	0.5	0.3597	0.023
Mof_O 	O 	0.73485	0.5	0.43556	-0.412
Mof_O 	O 	0.80861	0.5	0.43722	-0.42
Mof_C 	C 	0.22763	0.5	0.41917	0.383
Mof_C 	C 	0.22966	0.5	0.37185	-0.114
Mof_C 	C 	0.26859	0.5	0.34644	0.014
Mof_H 	H 	0.2958	0.5	0.3622	0.047
Mof_C 	C 	0.26788	0.5	0.30086	-0.039
Mof_C 	C 	0.22665	0.5	0.27593	0.156
Mof_C 	C 	0.19096	0.5	0.29931	-0.179
Mof_H 	H 	0.164	0.5	0.2832	0.086
Mof_C 	C 	0.18859	0.5	0.34461	0.063
Mof_H 	H 	0.161	0.5	0.3597	0.021
Mof_O 	O 	0.26515	0.5	0.43556	-0.412
Mof_O 	O 	0.19139	0.5	0.43722	-0.421
Mof_C 	C 	0.77237	0.5	0.58083	0.383
Mof_C 	C 	0.77034	0.5	0.62815	-0.114
Mof_C 	C 	0.73141	0.5	0.65356	0.015
Mof_H 	H 	0.7042	0.5	0.6378	0.047
Mof_C 	C 	0.73212	0.5	0.69914	-0.039
Mof_C 	C 	0.77335	0.5	0.72407	0.159
Mof_C 	C 	0.80904	0.5	0.70069	-0.18
Mof_H 	H 	0.836	0.5	0.7168	0.091
Mof_C 	C 	0.81141	0.5	0.65539	0.065
Mof_H 	H 	0.839	0.5	0.6403	0.023
Mof_O 	O 	0.73485	0.5	0.56444	-0.412
Mof_O 	O 	0.80861	0.5	0.56278	-0.42
Mof_C 	C 	0.22763	0.5	0.58083	0.383
Mof_C 	C 	0.22966	0.5	0.62815	-0.114
Mof_C 	C 	0.26859	0.5	0.65356	0.015
Mof_H 	H 	0.2958	0.5	0.6378	0.047
Mof_C 	C 	0.26788	0.5	0.69914	-0.039
Mof_C 	C 	0.22665	0.5	0.72407	0.157
Mof_C 	C 	0.19096	0.5	0.70069	-0.179
Mof_H 	H 	0.164	0.5	0.7168	0.087
Mof_C 	C 	0.18859	0.5	0.65539	0.063
Mof_H 	H 	0.161	0.5	0.6403	0.021
Mof_O 	O 	0.26515	0.5	0.56444	-0.412
Mof_O 	O 	0.19139	0.5	0.56278	-0.421
Mof_C 	C 	0.5	0.58083	0.22763	0.383
Mof_C 	C 	0.5	0.62815	0.22966	-0.114
Mof_C 	C 	0.5	0.65356	0.26859	0.015
Mof_H 	H 	0.5	0.6378	0.2958	0.047
Mof_C 	C 	0.5	0.69914	0.26788	-0.039
Mof_C 	C 	0.5	0.72407	0.22665	0.157
Mof_C 	C 	0.5	0.70069	0.19096	-0.179
Mof_H 	H 	0.5	0.7168	0.164	0.087
Mof_C 	C 	0.5	0.65539	0.18859	0.063
Mof_H 	H 	0.5	0.6403	0.161	0.021
Mof_O 	O 	0.5	0.56444	0.26515	-0.412
Mof_O 	O 	0.5	0.56278	0.19139	-0.421
Mof_C 	C 	0.5	0.58083	0.77237	0.383
Mof_C 	C 	0.5	0.62815	0.77034	-0.114
Mof_C 	C 	0.5	0.65356	0.73141	0.015
Mof_H 	H 	0.5	0.6378	0.7042	0.047
Mof_C 	C 	0.5	0.69914	0.73212	-0.039
Mof_C 	C 	0.5	0.72407	0.77335	0.159
Mof_C 	C 	0.5	0.70069	0.80904	-0.18
Mof_H 	H 	0.5	0.7168	0.836	0.091
Mof_C 	C 	0.5	0.65539	0.81141	0.065
Mof_H 	H 	0.5	0.6403	0.839	0.023
Mof_O 	O 	0.5	0.56444	0.73485	-0.412
Mof_O 	O 	0.5	0.56278	0.80861	-0.42
Mof_C 	C 	0.5	0.41917	0.22763	0.383
Mof_C 	C 	0.5	0.37185	0.22966	-0.114
Mof_C 	C 	0.5	0.34644	0.26859	0.014
Mof_H 	H 	0.5	0.3622	0.2958	0.047
Mof_C 	C 	0.5	0.30086	0.26788	-0.039
Mof_C 	C 	0.5	0.27593	0.22665	0.156
Mof_C 	C 	0.5	0.29931	0.19096	-0.179
Mof_H 	H 	0.5	0.2832	0.164	0.086
Mof_C 	C 	0.5	0.34461	0.18859	0.063
Mof_H 	H 	0.5	0.3597	0.161	0.021
Mof_O 	O 	0.5	0.43556	0.26515	-0.412
Mof_O 	O 	0.5	0.43722	0.19139	-0.421
Mof_C 	C 	0.5	0.41917	0.77237	0.383
Mof_C 	C 	0.5	0.37185	0.77034	-0.114
Mof_C 	C 	0.5	0.34644	0.73141	0.015
Mof_H 	H 	0.5	0.3622	0.7042	0.047
Mof_C 	C 	0.5	0.30086	0.73212	-0.039
Mof_C 	C 	0.5	0.27593	0.77335	0.158
Mof_C 	C 	0.5	0.29931	0.80904	-0.179
Mof_H 	H 	0.5	0.2832	0.836	0.09
Mof_C 	C 	0.5	0.34461	0.81141	0.064
Mof_H 	H 	0.5	0.3597	0.839	0.023
Mof_O 	O 	0.5	0.43556	0.73485	-0.412
Mof_O 	O 	0.5	0.43722	0.80861	-0.42
Mof_C 	C 	0.58083	0.77237	0.5	0.383
Mof_C 	C 	0.62815	0.77034	0.5	-0.114
Mof_C 	C 	0.65356	0.73141	0.5	0.015
Mof_H 	H 	0.6378	0.7042	0.5	0.047
Mof_C 	C 	0.69914	0.73212	0.5	-0.039
Mof_C 	C 	0.72407	0.77335	0.5	0.159
Mof_C 	C 	0.70069	0.80904	0.5	-0.18
Mof_H 	H 	0.7168	0.836	0.5	0.091
Mof_C 	C 	0.65539	0.81141	0.5	0.065
Mof_H 	H 	0.6403	0.839	0.5	0.023
Mof_O 	O 	0.56444	0.73485	0.5	-0.412
Mof_O 	O 	0.56278	0.80861	0.5	-0.42
Mof_C 	C 	0.58083	0.22763	0.5	0.383
Mof_C 	C 	0.62815	0.22966	0.5	-0.114
Mof_C 	C 	0.65356	0.26859	0.5	0.015
Mof_H 	H 	0.6378	0.2958	0.5	0.047
Mof_C 	C 	0.69914	0.26788	0.5	-0.039
Mof_C 	C 	0.72407	0.22665	0.5	0.157
Mof_C 	C 	0.70069	0.19096	0.5	-0.179
Mof_H 	H 	0.7168	0.164	0.5	0.087
Mof_C 	C 	0.65539	0.18859	0.5	0.063
Mof_H 	H 	0.6403	0.161	0.5	0.021
Mof_O 	O 	0.56444	0.26515	0.5	-0.412
Mof_O 	O 	0.56278	0.19139	0.5	-0.421
Mof_C 	C 	0.41917	0.77237	0.5	0.383
Mof_C 	C 	0.37185	0.77034	0.5	-0.114
Mof_C 	C 	0.34644	0.73141	0.5	0.015
Mof_H 	H 	0.3622	0.7042	0.5	0.047
Mof_C 	C 	0.30086	0.73212	0.5	-0.039
Mof_C 	C 	0.27593	0.77335	0.5	0.158
Mof_C 	C 	0.29931	0.80904	0.5	-0.179
Mof_H 	H 	0.2832	0.836	0.5	0.09
Mof_C 	C 	0.34461	0.81141	0.5	0.064
Mof_H 	H 	0.3597	0.839	0.5	0.023
Mof_O 	O 	0.43556	0.73485	0.5	-0.412
Mof_O 	O 	0.43722	0.80861	0.5	-0.42
Mof_C 	C 	0.41917	0.22763	0.5	0.383
Mof_C 	C 	0.37185	0.22966	0.5	-0.114
Mof_C 	C 	0.34644	0.26859	0.5	0.014
Mof_H 	H 	0.3622	0.2958	0.5	0.047
Mof_C 	C 	0.30086	0.26788	0.5	-0.039
Mof_C 	C 	0.27593	0.22665	0.5	0.156
Mof_C 	C 	0.29931	0.19096	0.5	-0.179
Mof_H 	H 	0.2832	0.164	0.5	0.086
Mof_C 	C 	0.34461	0.18859	0.5	0.063
Mof_H 	H 	0.3597	0.161	0.5	0.021
Mof_O 	O 	0.43556	0.26515	0.5	-0.412
Mof_O 	O 	0.43722	0.19139	0.5	-0.421
Mof_C 	C 	0.53488	0.90558	0.5	0.047
Mof_H 	H 	0.5616	0.8891	0.5	0.023
Mof_C 	C 	0.5346	0.9511	0.5	-0.093
Mof_H 	H 	0.563	0.9645	0.5	0.059
Mof_C 	C 	0.46512	0.09442	0.5	0.028
Mof_H 	H 	0.4384	0.1109	0.5	0.027
Mof_C 	C 	0.4654	0.0489	0.5	-0.054
Mof_H 	H 	0.437	0.0355	0.5	0.036
Mof_C 	C 	0.46512	0.90558	0.5	0.047
Mof_H 	H 	0.4384	0.8891	0.5	0.023
Mof_C 	C 	0.4654	0.9511	0.5	-0.093
Mof_H 	H 	0.437	0.9645	0.5	0.059
Mof_C 	C 	0.53488	0.09442	0.5	0.028
Mof_H 	H 	0.5616	0.1109	0.5	0.027
Mof_C 	C 	0.5346	0.0489	0.5	-0.054
Mof_H 	H 	0.563	0.0355	0.5	0.037
Mof_C 	C 	0.5	0.53488	0.90558	0.047
Mof_H 	H 	0.5	0.5616	0.8891	0.023
Mof_C 	C 	0.5	0.5346	0.9511	-0.093
Mof_H 	H 	0.5	0.563	0.9645	0.059
Mof_C 	C 	0.5	0.46512	0.09442	0.028
Mof_H 	H 	0.5	0.4384	0.1109	0.027
Mof_C 	C 	0.5	0.4654	0.0489	-0.054
Mof_H 	H 	0.5	0.437	0.0355	0.036
Mof_C 	C 	0.5	0.46512	0.90558	0.047
Mof_H 	H 	0.5	0.4384	0.8891	0.023
Mof_C 	C 	0.5	0.4654	0.9511	-0.093
Mof_H 	H 	0.5	0.437	0.9645	0.059
Mof_C 	C 	0.5	0.53488	0.09442	0.028
Mof_H 	H 	0.5	0.5616	0.1109	0.027
Mof_C 	C 	0.5	0.5346	0.0489	-0.054
Mof_H 	H 	0.5	0.563	0.0355	0.037
Mof_C 	C 	0.90558	0.5	0.53488	0.047
Mof_H 	H 	0.8891	0.5	0.5616	0.023
Mof_C 	C 	0.9511	0.5	0.5346	-0.093
Mof_H 	H 	0.9645	0.5	0.563	0.059
Mof_C 	C 	0.09442	0.5	0.46512	0.028
Mof_H 	H 	0.1109	0.5	0.4384	0.027
Mof_C 	C 	0.0489	0.5	0.4654	-0.054
Mof_H 	H 	0.0355	0.5	0.437	0.036
Mof_C 	C 	0.90558	0.5	0.46512	0.047
Mof_H 	H 	0.8891	0.5	0.4384	0.023
Mof_C 	C 	0.9511	0.5	0.4654	-0.093
Mof_H 	H 	0.9645	0.5	0.437	0.059
Mof_C 	C 	0.09442	0.5	0.53488	0.028
Mof_H 	H 	0.1109	0.5	0.5616	0.027
Mof_C 	C 	0.0489	0.5	0.5346	-0.054
Mof_H 	H 	0.0355	0.5	0.563	0.037
Mof_C 	C 	0.90558	0.53488	0.5	0.047
Mof_H 	H 	0.8891	0.5616	0.5	0.023
Mof_C 	C 	0.9511	0.5346	0.5	-0.093
Mof_H 	H 	0.9645	0.563	0.5	0.059
Mof_C 	C 	0.09442	0.46512	0.5	0.028
Mof_H 	H 	0.1109	0.4384	0.5	0.027
Mof_C 	C 	0.0489	0.4654	0.5	-0.054
Mof_H 	H 	0.0355	0.437	0.5	0.036
Mof_C 	C 	0.90558	0.46512	0.5	0.047
Mof_H 	H 	0.8891	0.4384	0.5	0.023
Mof_C 	C 	0.9511	0.4654	0.5	-0.093
Mof_H 	H 	0.9645	0.437	0.5	0.059
Mof_C 	C 	0.09442	0.53488	0.5	0.028
Mof_H 	H 	0.1109	0.5616	0.5	0.027
Mof_C 	C 	0.0489	0.5346	0.5	-0.054
Mof_H 	H 	0.0355	0.563	0.5	0.037
Mof_C 	C 	0.53488	0.5	0.09442	0.028
Mof_H 	H 	0.5616	0.5	0.1109	0.027
Mof_C 	C 	0.5346	0.5	0.0489	-0.054
Mof_H 	H 	0.563	0.5	0.0355	0.037
Mof_C 	C 	0.46512	0.5	0.90558	0.047
Mof_H 	H 	0.4384	0.5	0.8891	0.023
Mof_C 	C 	0.4654	0.5	0.9511	-0.093
Mof_H 	H 	0.437	0.5	0.9645	0.059
Mof_C 	C 	0.46512	0.5	0.09442	0.028
Mof_H 	H 	0.4384	0.5	0.1109	0.027
Mof_C 	C 	0.4654	0.5	0.0489	-0.054
Mof_H 	H 	0.437	0.5	0.0355	0.036
Mof_C 	C 	0.53488	0.5	0.90558	0.047
Mof_H 	H 	0.5616	0.5	0.8891	0.023
Mof_C 	C 	0.5346	0.5	0.9511	-0.093
Mof_H 	H 	0.563	0.5	0.9645	0.059
Mof_C 	C 	0.5	0.90558	0.46512	0.047
Mof_H 	H 	0.5	0.8891	0.4384	0.023
Mof_C 	C 	0.5	0.9511	0.4654	-0.093
Mof_H 	H 	0.5	0.9645	0.437	0.059
Mof_C 	C 	0.5	0.09442	0.53488	0.028
Mof_H 	H 	0.5	0.1109	0.5616	0.027
Mof_C 	C 	0.5	0.0489	0.5346	-0.054
Mof_H 	H 	0.5	0.0355	0.563	0.037
Mof_C 	C 	0.5	0.90558	0.53488	0.047
Mof_H 	H 	0.5	0.8891	0.5616	0.023
Mof_C 	C 	0.5	0.9511	0.5346	-0.093
Mof_H 	H 	0.5	0.9645	0.563	0.059
Mof_C 	C 	0.5	0.09442	0.46512	0.028
Mof_H 	H 	0.5	0.1109	0.4384	0.027
Mof_C 	C 	0.5	0.0489	0.4654	-0.054
Mof_H 	H 	0.5	0.0355	0.437	0.036
_end
