# CIF file generated by openbabel 2.4.1, see http://openbabel.sf.net
data_I
_chemical_name_common 'image0'
_cell_length_a 34.627
_cell_length_b 15.0818
_cell_length_c 31.194
_cell_angle_alpha 90
_cell_angle_beta 102.792
_cell_angle_gamma 90
_space_group_name_H-M_alt 'P 1'
_space_group_name_Hall 'P 1'
loop_
    _symmetry_equiv_pos_as_xyz
    x,y,z
loop_
    _atom_site_label
    _atom_site_type_symbol
    _atom_site_fract_x
    _atom_site_fract_y
    _atom_site_fract_z
    _atom_site_occupancy
    I1      I    0.86480   0.66990   0.04550   1.000
    Zn1     Zn   0.82230   0.64190   0.96960   1.000
    N1      N    0.80630   0.50130   0.96510   1.000
    I2      I    0.75700   0.72020   0.93870   1.000
    N2      N    0.85370   0.65730   0.92270   1.000
    C1      C    0.83440   0.45290   0.99430   1.000
    C2      C    0.77600   0.46670   0.93840   1.000
    C3      C    0.84160   0.70780   0.88660   1.000
    C4      C    0.89120   0.62040   0.93020   1.000
    H1      H    0.85630   0.48080   0.01330   1.000
    C5      C    0.82910   0.36300   0.99450   1.000
    C6      C    0.76990   0.37650   0.93890   1.000
    H2      H    0.75810   0.50340   0.91850   1.000
    C7      C    0.86670   0.72630   0.85710   1.000
    H3      H    0.81560   0.73190   0.88060   1.000
    C8      C    0.91720   0.63760   0.90370   1.000
    H4      H    0.89920   0.58180   0.95450   1.000
    H5      H    0.84810   0.32690   0.01340   1.000
    C9      C    0.79610   0.32350   0.96720   1.000
    H6      H    0.74750   0.35100   0.91970   1.000
    H7      H    0.85750   0.76150   0.83160   1.000
    C10     C    0.90440   0.69230   0.86600   1.000
    H8      H    0.94320   0.61350   0.91040   1.000
    C11     C    0.78990   0.22350   0.96860   1.000
    C12     C    0.93220   0.70600   0.83580   1.000
    N3      N    0.76010   0.19010   0.94020   1.000
    N4      N    0.81600   0.18060   0.00160   1.000
    N5      N    0.92350   0.77520   0.80930   1.000
    N6      N    0.95900   0.64640   0.83770   1.000
    C13     C    0.75590   0.09970   0.94700   1.000
    C14     C    0.80950   0.09510   0.00360   1.000
    C15     C    0.94810   0.78360   0.78220   1.000
    C16     C    0.97960   0.65820   0.80800   1.000
    N7      N    0.77920   0.05070   0.97680   1.000
    C17     C    0.72580   0.05600   0.91530   1.000
    C18     C    0.83430   0.04660   0.03850   1.000
    C19     C    0.94430   0.86410   0.75370   1.000
    N8      N    0.97610   0.72660   0.77860   1.000
    C20     C    0.01280   0.59510   0.80510   1.000
    C21     C    0.69970   0.10080   0.88100   1.000
    C22     C    0.71970   0.96540   0.91790   1.000
    C23     C    0.82840   0.95550   0.04470   1.000
    C24     C    0.86480   0.08450   0.06920   1.000
    C25     C    0.91390   0.92230   0.75040   1.000
    C26     C    0.97250   0.88390   0.73020   1.000
    C27     C    0.03080   0.58760   0.76940   1.000
    C28     C    0.02490   0.53700   0.83930   1.000
    C29     C    0.67060   0.04780   0.85260   1.000
    H9      H    0.70140   0.16300   0.87690   1.000
    H10     H    0.73650   0.93220   0.94040   1.000
    C30     C    0.69100   0.92360   0.88970   1.000
    C31     C    0.85430   0.90960   0.08030   1.000
    H11     H    0.80750   0.92470   0.02570   1.000
    H12     H    0.86740   0.14720   0.06920   1.000
    C32     C    0.89090   0.03780   0.09900   1.000
    C33     C    0.91140   0.99180   0.72030   1.000
    H13     H    0.89490   0.91600   0.76800   1.000
    C34     C    0.96900   0.95230   0.70120   1.000
    H14     H    0.99550   0.84790   0.73440   1.000
    C35     C    0.06100   0.53480   0.77130   1.000
    H15     H    0.02090   0.62110   0.74350   1.000
    C36     C    0.05690   0.48000   0.83910   1.000
    H16     H    0.01160   0.53490   0.86290   1.000
    N9      N    0.66580   0.96570   0.85570   1.000
    H17     H    0.65320   0.07750   0.82920   1.000
    H18     H    0.68780   0.86170   0.89340   1.000
    N10     N    0.88470   0.95100   0.10620   1.000
    H19     H    0.84970   0.84880   0.08530   1.000
    H20     H    0.91400   0.06620   0.11530   1.000
    N11     N    0.93760   0.00610   0.69650   1.000
    H21     H    0.88940   0.03090   0.71680   1.000
    H22     H    0.98860   0.96180   0.68460   1.000
    H23     H    0.07400   0.53520   0.74760   1.000
    N12     N    0.07480   0.47900   0.80590   1.000
    H24     H    0.06590   0.44150   0.86330   1.000
    Zn2     Zn   0.62450   0.90250   0.80680   1.000
    Zn3     Zn   0.92497   0.88302   0.15266   1.000
    Zn4     Zn   0.93090   0.09820   0.64740   1.000
    N13     N    0.88680   0.03710   0.60110   1.000
    I3      I    0.89713   0.23060   0.67360   1.000
    I4      I    0.99219   0.11250   0.61700   1.000
    I5      I    0.14720   0.41920   0.73800   1.000
    I6      I    0.10840   0.26040   0.84080   1.000
    C37     C    0.89210   0.95370   0.59350   1.000
    C38     C    0.85480   0.07410   0.57680   1.000
    C39     C    0.86900   0.90380   0.56100   1.000
    H25     H    0.91400   0.92490   0.61200   1.000
    C40     C    0.82930   0.03090   0.54420   1.000
    H26     H    0.84930   0.13420   0.58240   1.000
    H27     H    0.87480   0.84370   0.55590   1.000
    C41     C    0.83570   0.94810   0.53560   1.000
    H28     H    0.80680   0.06080   0.52760   1.000
    C42     C    0.80830   0.89470   0.49960   1.000
    N14     N    0.81810   0.80820   0.49660   1.000
    N15     N    0.77950   0.93780   0.47550   1.000
    C43     C    0.79110   0.76240   0.46700   1.000
    C44     C    0.75650   0.88880   0.44250   1.000
    N16     N    0.76190   0.80280   0.43930   1.000
    C45     C    0.79520   0.66890   0.46570   1.000
    C46     C    0.72390   0.93950   0.41340   1.000
    C47     C    0.76850   0.62060   0.43410   1.000
    C48     C    0.82300   0.62560   0.49510   1.000
    C49     C    0.69630   0.89280   0.38150   1.000
    C50     C    0.71970   0.02580   0.41780   1.000
    H29     H    0.74760   0.64570   0.41270   1.000
    C51     C    0.77770   0.52330   0.43900   1.000
    C52     C    0.82670   0.53600   0.49400   1.000
    H30     H    0.84060   0.65850   0.51720   1.000
    C53     C    0.66790   0.93670   0.35340   1.000
    H31     H    0.69780   0.83010   0.38000   1.000
    C54     C    0.68710   0.07060   0.38900   1.000
    H32     H    0.73780   0.05800   0.43950   1.000
    N17     N    0.80350   0.48260   0.46510   1.000
    H33     H    0.76060   0.48670   0.41830   1.000
    H34     H    0.84720   0.50970   0.51540   1.000
    N18     N    0.66230   0.02730   0.35810   1.000
    H35     H    0.65140   0.90560   0.32990   1.000
    H36     H    0.68350   0.13240   0.39260   1.000
    Zn5     Zn   0.80480   0.34940   0.45760   1.000
    Zn6     Zn   0.61850   0.09480   0.31580   1.000
    I7      I    0.60680   0.23950   0.35224   1.000
    N19     N    0.57350   0.01210   0.30820   1.000
    I8      I    0.63992   0.08710   0.24424   1.000
    C55     C    0.55310   0.00700   0.34480   1.000
    C56     C    0.56120   0.95920   0.27450   1.000
    H37     H    0.56030   0.04860   0.36810   1.000
    C57     C    0.52560   0.94900   0.34690   1.000
    C58     C    0.52860   0.89820   0.27520   1.000
    H38     H    0.57330   0.96070   0.25000   1.000
    C59     C    0.51130   0.89280   0.30930   1.000
    H39     H    0.51540   0.94310   0.37260   1.000
    H40     H    0.51940   0.86100   0.25050   1.000
    C60     C    0.47990   0.83320   0.30780   1.000
    N20     N    0.47500   0.76600   0.27840   1.000
    N21     N    0.45730   0.84640   0.33730   1.000
    C61     C    0.44570   0.70890   0.28200   1.000
    C62     C    0.42560   0.78920   0.33610   1.000
    C63     C    0.44250   0.62940   0.25400   1.000
    N22     N    0.42090   0.71630   0.30890   1.000
    C64     C    0.40060   0.80030   0.36570   1.000
    C65     C    0.41160   0.57120   0.24940   1.000
    C66     C    0.47120   0.61060   0.23130   1.000
    C67     C    0.36640   0.75590   0.35920   1.000
    C68     C    0.41050   0.85400   0.40200   1.000
    C69     C    0.40740   0.49910   0.22200   1.000
    H41     H    0.39210   0.58120   0.26600   1.000
    C70     C    0.46560   0.53630   0.20460   1.000
    H42     H    0.49390   0.64720   0.23370   1.000
    H43     H    0.35970   0.71330   0.33640   1.000
    C71     C    0.34130   0.77300   0.38610   1.000
    H44     H    0.43590   0.88000   0.41050   1.000
    C72     C    0.38120   0.86700   0.42580   1.000
    N23     N    0.43410   0.47980   0.20030   1.000
    H45     H    0.38450   0.46280   0.21880   1.000
    H46     H    0.48500   0.52360   0.18820   1.000
    N24     N    0.34410   0.83200   0.41720   1.000
    H47     H    0.31830   0.73680   0.38160   1.000
    H48     H    0.38800   0.90490   0.45060   1.000
    I9      I    0.39237   0.25654   0.18078   1.000
    I10     I    0.48488   0.36742   0.11887   1.000
    I11     I    0.23971   0.78400   0.42149   1.000
    I12     I    0.34110   0.79720   0.53130   1.000
    Zn7     Zn   0.80810   0.63790   0.95920   1.000
    I13     I    0.85050   0.68730   0.03420   1.000
    I14     I    0.74520   0.71340   0.92680   1.000
    Zn8     Zn   0.62390   0.89700   0.81340   1.000
    I15     I    0.64650   0.91330   0.73840   1.000
    I16     I    0.61130   0.75420   0.84980   1.000
    I17     I    0.38170   0.72600   0.68400   1.000
    I18     I    0.47840   0.64270   0.61970   1.000
    Zn9     Zn   0.12670   0.59520   0.30450   1.000
    I19     I    0.11610   0.72830   0.33660   1.000
    I20     I    0.14870   0.57400   0.23310   1.000
    Zn10    Zn   0.82740   0.35040   0.47330   1.000
    I21     I    0.87460   0.32110   0.54470   1.000
    I22     I    0.76610   0.26210   0.44950   1.000
    Zn11    Zn   0.42080   0.61820   0.65110   1.000
    I23     I    0.36480   0.16990   0.04550   1.000
    Zn12    Zn   0.32230   0.14190   0.96960   1.000
    N25     N    0.30630   0.00130   0.96510   1.000
    I24     I    0.25700   0.22020   0.93870   1.000
    N26     N    0.35370   0.15730   0.92270   1.000
    C73     C    0.33440   0.95290   0.99430   1.000
    C74     C    0.27600   0.96670   0.93840   1.000
    C75     C    0.34160   0.20780   0.88660   1.000
    C76     C    0.39120   0.12040   0.93020   1.000
    H49     H    0.35630   0.98080   0.01330   1.000
    C77     C    0.32910   0.86300   0.99450   1.000
    C78     C    0.26990   0.87650   0.93890   1.000
    H50     H    0.25810   0.00340   0.91850   1.000
    C79     C    0.36670   0.22630   0.85710   1.000
    H51     H    0.31560   0.23190   0.88060   1.000
    C80     C    0.41720   0.13760   0.90370   1.000
    H52     H    0.39920   0.08180   0.95450   1.000
    H53     H    0.34810   0.82690   0.01340   1.000
    C81     C    0.29610   0.82350   0.96720   1.000
    H54     H    0.24750   0.85100   0.91970   1.000
    H55     H    0.35750   0.26150   0.83160   1.000
    C82     C    0.40440   0.19230   0.86600   1.000
    H56     H    0.44320   0.11350   0.91040   1.000
    C83     C    0.28990   0.72350   0.96860   1.000
    C84     C    0.43220   0.20600   0.83580   1.000
    N27     N    0.26010   0.69010   0.94020   1.000
    N28     N    0.31600   0.68060   0.00160   1.000
    N29     N    0.42350   0.27520   0.80930   1.000
    N30     N    0.45900   0.14640   0.83770   1.000
    C85     C    0.25590   0.59970   0.94700   1.000
    C86     C    0.30950   0.59510   0.00360   1.000
    C87     C    0.44810   0.28360   0.78220   1.000
    C88     C    0.47960   0.15820   0.80800   1.000
    N31     N    0.27920   0.55070   0.97680   1.000
    C89     C    0.22580   0.55600   0.91530   1.000
    C90     C    0.33430   0.54660   0.03850   1.000
    C91     C    0.44430   0.36410   0.75370   1.000
    N32     N    0.47610   0.22660   0.77860   1.000
    C92     C    0.51280   0.09510   0.80510   1.000
    C93     C    0.19970   0.60080   0.88100   1.000
    C94     C    0.21970   0.46540   0.91790   1.000
    C95     C    0.32840   0.45550   0.04470   1.000
    C96     C    0.36480   0.58450   0.06920   1.000
    C97     C    0.41390   0.42230   0.75040   1.000
    C98     C    0.47250   0.38390   0.73020   1.000
    C99     C    0.53080   0.08760   0.76940   1.000
    C100    C    0.52490   0.03700   0.83930   1.000
    C101    C    0.17060   0.54780   0.85260   1.000
    H57     H    0.20140   0.66300   0.87690   1.000
    H58     H    0.23650   0.43220   0.94040   1.000
    C102    C    0.19100   0.42360   0.88970   1.000
    C103    C    0.35430   0.40960   0.08030   1.000
    H59     H    0.30750   0.42470   0.02570   1.000
    H60     H    0.36740   0.64720   0.06920   1.000
    C104    C    0.39090   0.53780   0.09900   1.000
    C105    C    0.41140   0.49180   0.72030   1.000
    H61     H    0.39490   0.41600   0.76800   1.000
    C106    C    0.46900   0.45230   0.70120   1.000
    H62     H    0.49550   0.34790   0.73440   1.000
    C107    C    0.56100   0.03480   0.77130   1.000
    H63     H    0.52090   0.12110   0.74350   1.000
    C108    C    0.55690   0.98000   0.83910   1.000
    H64     H    0.51160   0.03490   0.86290   1.000
    N33     N    0.16580   0.46570   0.85570   1.000
    H65     H    0.15320   0.57750   0.82920   1.000
    H66     H    0.18780   0.36170   0.89340   1.000
    N34     N    0.38470   0.45100   0.10620   1.000
    H67     H    0.34970   0.34880   0.08530   1.000
    H68     H    0.41400   0.56620   0.11530   1.000
    N35     N    0.43760   0.50610   0.69650   1.000
    H69     H    0.38940   0.53090   0.71680   1.000
    H70     H    0.48860   0.46180   0.68460   1.000
    H71     H    0.57400   0.03520   0.74760   1.000
    N36     N    0.57480   0.97900   0.80590   1.000
    H72     H    0.56590   0.94150   0.86330   1.000
    Zn13    Zn   0.12450   0.40250   0.80680   1.000
    Zn14    Zn   0.42497   0.38302   0.15266   1.000
    Zn15    Zn   0.43090   0.59820   0.64740   1.000
    N37     N    0.38680   0.53710   0.60110   1.000
    I25     I    0.39713   0.73060   0.67360   1.000
    I26     I    0.49219   0.61250   0.61700   1.000
    I27     I    0.64720   0.91920   0.73800   1.000
    I28     I    0.60840   0.76040   0.84080   1.000
    C109    C    0.39210   0.45370   0.59350   1.000
    C110    C    0.35480   0.57410   0.57680   1.000
    C111    C    0.36900   0.40380   0.56100   1.000
    H73     H    0.41400   0.42490   0.61200   1.000
    C112    C    0.32930   0.53090   0.54420   1.000
    H74     H    0.34930   0.63420   0.58240   1.000
    H75     H    0.37480   0.34370   0.55590   1.000
    C113    C    0.33570   0.44810   0.53560   1.000
    H76     H    0.30680   0.56080   0.52760   1.000
    C114    C    0.30830   0.39470   0.49960   1.000
    N38     N    0.31810   0.30820   0.49660   1.000
    N39     N    0.27950   0.43780   0.47550   1.000
    C115    C    0.29110   0.26240   0.46700   1.000
    C116    C    0.25650   0.38880   0.44250   1.000
    N40     N    0.26190   0.30280   0.43930   1.000
    C117    C    0.29520   0.16890   0.46570   1.000
    C118    C    0.22390   0.43950   0.41340   1.000
    C119    C    0.26850   0.12060   0.43410   1.000
    C120    C    0.32300   0.12560   0.49510   1.000
    C121    C    0.19630   0.39280   0.38150   1.000
    C122    C    0.21970   0.52580   0.41780   1.000
    H77     H    0.24760   0.14570   0.41270   1.000
    C123    C    0.27770   0.02330   0.43900   1.000
    C124    C    0.32670   0.03600   0.49400   1.000
    H78     H    0.34060   0.15850   0.51720   1.000
    C125    C    0.16790   0.43670   0.35340   1.000
    H79     H    0.19780   0.33010   0.38000   1.000
    C126    C    0.18710   0.57060   0.38900   1.000
    H80     H    0.23780   0.55800   0.43950   1.000
    N41     N    0.30350   0.98260   0.46510   1.000
    H81     H    0.26060   0.98670   0.41830   1.000
    H82     H    0.34720   0.00970   0.51540   1.000
    N42     N    0.16230   0.52730   0.35810   1.000
    H83     H    0.15140   0.40560   0.32990   1.000
    H84     H    0.18350   0.63240   0.39260   1.000
    Zn16    Zn   0.30480   0.84940   0.45760   1.000
    Zn17    Zn   0.11850   0.59480   0.31580   1.000
    I29     I    0.10680   0.73950   0.35224   1.000
    N43     N    0.07350   0.51210   0.30820   1.000
    I30     I    0.13992   0.58710   0.24424   1.000
    C127    C    0.05310   0.50700   0.34480   1.000
    C128    C    0.06120   0.45920   0.27450   1.000
    H85     H    0.06030   0.54860   0.36810   1.000
    C129    C    0.02560   0.44900   0.34690   1.000
    C130    C    0.02860   0.39820   0.27520   1.000
    H86     H    0.07330   0.46070   0.25000   1.000
    C131    C    0.01130   0.39280   0.30930   1.000
    H87     H    0.01540   0.44310   0.37260   1.000
    H88     H    0.01940   0.36100   0.25050   1.000
    C132    C    0.97990   0.33320   0.30780   1.000
    N44     N    0.97500   0.26600   0.27840   1.000
    N45     N    0.95730   0.34640   0.33730   1.000
    C133    C    0.94570   0.20890   0.28200   1.000
    C134    C    0.92560   0.28920   0.33610   1.000
    C135    C    0.94250   0.12940   0.25400   1.000
    N46     N    0.92090   0.21630   0.30890   1.000
    C136    C    0.90060   0.30030   0.36570   1.000
    C137    C    0.91160   0.07120   0.24940   1.000
    C138    C    0.97120   0.11060   0.23130   1.000
    C139    C    0.86640   0.25590   0.35920   1.000
    C140    C    0.91050   0.35400   0.40200   1.000
    C141    C    0.90740   0.99910   0.22200   1.000
    H89     H    0.89210   0.08120   0.26600   1.000
    C142    C    0.96560   0.03630   0.20460   1.000
    H90     H    0.99390   0.14720   0.23370   1.000
    H91     H    0.85970   0.21330   0.33640   1.000
    C143    C    0.84130   0.27300   0.38610   1.000
    H92     H    0.93590   0.38000   0.41050   1.000
    C144    C    0.88120   0.36700   0.42580   1.000
    N47     N    0.93410   0.97980   0.20030   1.000
    H93     H    0.88450   0.96280   0.21880   1.000
    H94     H    0.98500   0.02360   0.18820   1.000
    N48     N    0.84410   0.33200   0.41720   1.000
    H95     H    0.81830   0.23680   0.38160   1.000
    H96     H    0.88800   0.40490   0.45060   1.000
    I31     I    0.89237   0.75654   0.18078   1.000
    I32     I    0.98488   0.86742   0.11887   1.000
    I33     I    0.73971   0.28400   0.42149   1.000
    I34     I    0.84110   0.29720   0.53130   1.000
    Zn18    Zn   0.30810   0.13790   0.95920   1.000
    I35     I    0.35050   0.18730   0.03420   1.000
    I36     I    0.24520   0.21340   0.92680   1.000
    Zn19    Zn   0.12390   0.39700   0.81340   1.000
    I37     I    0.14650   0.41330   0.73840   1.000
    I38     I    0.11130   0.25420   0.84980   1.000
    I39     I    0.88170   0.22600   0.68400   1.000
    I40     I    0.97840   0.14270   0.61970   1.000
    Zn20    Zn   0.62670   0.09520   0.30450   1.000
    I41     I    0.61610   0.22830   0.33660   1.000
    I42     I    0.64870   0.07400   0.23310   1.000
    Zn21    Zn   0.32740   0.85040   0.47330   1.000
    I43     I    0.37460   0.82110   0.54470   1.000
    I44     I    0.26610   0.76210   0.44950   1.000
    Zn22    Zn   0.92080   0.11820   0.65110   1.000
    I45     I    0.13520   0.66990   0.95450   1.000
    Zn23    Zn   0.17770   0.64190   0.03040   1.000
    N49     N    0.19370   0.50130   0.03490   1.000
    I46     I    0.24300   0.72020   0.06130   1.000
    N50     N    0.14630   0.65730   0.07730   1.000
    C145    C    0.16560   0.45290   0.00570   1.000
    C146    C    0.22400   0.46670   0.06160   1.000
    C147    C    0.15840   0.70780   0.11340   1.000
    C148    C    0.10880   0.62040   0.06980   1.000
    H97     H    0.14370   0.48080   0.98670   1.000
    C149    C    0.17090   0.36300   0.00550   1.000
    C150    C    0.23010   0.37650   0.06110   1.000
    H98     H    0.24190   0.50340   0.08150   1.000
    C151    C    0.13330   0.72630   0.14290   1.000
    H99     H    0.18440   0.73190   0.11940   1.000
    C152    C    0.08280   0.63760   0.09630   1.000
    H100    H    0.10080   0.58180   0.04550   1.000
    H101    H    0.15190   0.32690   0.98660   1.000
    C153    C    0.20390   0.32350   0.03280   1.000
    H102    H    0.25250   0.35100   0.08030   1.000
    H103    H    0.14250   0.76150   0.16840   1.000
    C154    C    0.09560   0.69230   0.13400   1.000
    H104    H    0.05680   0.61350   0.08960   1.000
    C155    C    0.21010   0.22350   0.03140   1.000
    C156    C    0.06780   0.70600   0.16420   1.000
    N51     N    0.23990   0.19010   0.05980   1.000
    N52     N    0.18400   0.18060   0.99840   1.000
    N53     N    0.07650   0.77520   0.19070   1.000
    N54     N    0.04100   0.64640   0.16230   1.000
    C157    C    0.24410   0.09970   0.05300   1.000
    C158    C    0.19050   0.09510   0.99640   1.000
    C159    C    0.05190   0.78360   0.21780   1.000
    C160    C    0.02040   0.65820   0.19200   1.000
    N55     N    0.22080   0.05070   0.02320   1.000
    C161    C    0.27420   0.05600   0.08470   1.000
    C162    C    0.16570   0.04660   0.96150   1.000
    C163    C    0.05570   0.86410   0.24630   1.000
    N56     N    0.02390   0.72660   0.22140   1.000
    C164    C    0.98720   0.59510   0.19490   1.000
    C165    C    0.30030   0.10080   0.11900   1.000
    C166    C    0.28030   0.96540   0.08210   1.000
    C167    C    0.17160   0.95550   0.95530   1.000
    C168    C    0.13520   0.08450   0.93080   1.000
    C169    C    0.08610   0.92230   0.24960   1.000
    C170    C    0.02750   0.88390   0.26980   1.000
    C171    C    0.96920   0.58760   0.23060   1.000
    C172    C    0.97510   0.53700   0.16070   1.000
    C173    C    0.32940   0.04780   0.14740   1.000
    H105    H    0.29860   0.16300   0.12310   1.000
    H106    H    0.26350   0.93220   0.05960   1.000
    C174    C    0.30900   0.92360   0.11030   1.000
    C175    C    0.14570   0.90960   0.91970   1.000
    H107    H    0.19250   0.92470   0.97430   1.000
    H108    H    0.13260   0.14720   0.93080   1.000
    C176    C    0.10910   0.03780   0.90100   1.000
    C177    C    0.08860   0.99180   0.27970   1.000
    H109    H    0.10510   0.91600   0.23200   1.000
    C178    C    0.03100   0.95230   0.29880   1.000
    H110    H    0.00450   0.84790   0.26560   1.000
    C179    C    0.93900   0.53480   0.22870   1.000
    H111    H    0.97910   0.62110   0.25650   1.000
    C180    C    0.94310   0.48000   0.16090   1.000
    H112    H    0.98840   0.53490   0.13710   1.000
    N57     N    0.33420   0.96570   0.14430   1.000
    H113    H    0.34680   0.07750   0.17080   1.000
    H114    H    0.31220   0.86170   0.10660   1.000
    N58     N    0.11530   0.95100   0.89380   1.000
    H115    H    0.15030   0.84880   0.91470   1.000
    H116    H    0.08600   0.06620   0.88470   1.000
    N59     N    0.06240   0.00610   0.30350   1.000
    H117    H    0.11060   0.03090   0.28320   1.000
    H118    H    0.01140   0.96180   0.31540   1.000
    H119    H    0.92600   0.53520   0.25240   1.000
    N60     N    0.92520   0.47900   0.19410   1.000
    H120    H    0.93410   0.44150   0.13670   1.000
    Zn24    Zn   0.37550   0.90250   0.19320   1.000
    Zn25    Zn   0.07503   0.88302   0.84734   1.000
    Zn26    Zn   0.06910   0.09820   0.35260   1.000
    N61     N    0.11320   0.03710   0.39890   1.000
    I47     I    0.10287   0.23060   0.32640   1.000
    I48     I    0.00781   0.11250   0.38300   1.000
    I49     I    0.85280   0.41920   0.26200   1.000
    I50     I    0.89160   0.26040   0.15920   1.000
    C181    C    0.10790   0.95370   0.40650   1.000
    C182    C    0.14520   0.07410   0.42320   1.000
    C183    C    0.13100   0.90380   0.43900   1.000
    H121    H    0.08600   0.92490   0.38800   1.000
    C184    C    0.17070   0.03090   0.45580   1.000
    H122    H    0.15070   0.13420   0.41760   1.000
    H123    H    0.12520   0.84370   0.44410   1.000
    C185    C    0.16430   0.94810   0.46440   1.000
    H124    H    0.19320   0.06080   0.47240   1.000
    C186    C    0.19170   0.89470   0.50040   1.000
    N62     N    0.18190   0.80820   0.50340   1.000
    N63     N    0.22050   0.93780   0.52450   1.000
    C187    C    0.20890   0.76240   0.53300   1.000
    C188    C    0.24350   0.88880   0.55750   1.000
    N64     N    0.23810   0.80280   0.56070   1.000
    C189    C    0.20480   0.66890   0.53430   1.000
    C190    C    0.27610   0.93950   0.58660   1.000
    C191    C    0.23150   0.62060   0.56590   1.000
    C192    C    0.17700   0.62560   0.50490   1.000
    C193    C    0.30370   0.89280   0.61850   1.000
    C194    C    0.28030   0.02580   0.58220   1.000
    H125    H    0.25240   0.64570   0.58730   1.000
    C195    C    0.22230   0.52330   0.56100   1.000
    C196    C    0.17330   0.53600   0.50600   1.000
    H126    H    0.15940   0.65850   0.48280   1.000
    C197    C    0.33210   0.93670   0.64660   1.000
    H127    H    0.30220   0.83010   0.62000   1.000
    C198    C    0.31290   0.07060   0.61100   1.000
    H128    H    0.26220   0.05800   0.56050   1.000
    N65     N    0.19650   0.48260   0.53490   1.000
    H129    H    0.23940   0.48670   0.58170   1.000
    H130    H    0.15280   0.50970   0.48460   1.000
    N66     N    0.33770   0.02730   0.64190   1.000
    H131    H    0.34860   0.90560   0.67010   1.000
    H132    H    0.31650   0.13240   0.60740   1.000
    Zn27    Zn   0.19520   0.34940   0.54240   1.000
    Zn28    Zn   0.38150   0.09480   0.68420   1.000
    I51     I    0.39320   0.23950   0.64776   1.000
    N67     N    0.42650   0.01210   0.69180   1.000
    I52     I    0.36008   0.08710   0.75576   1.000
    C199    C    0.44690   0.00700   0.65520   1.000
    C200    C    0.43880   0.95920   0.72550   1.000
    H133    H    0.43970   0.04860   0.63190   1.000
    C201    C    0.47440   0.94900   0.65310   1.000
    C202    C    0.47140   0.89820   0.72480   1.000
    H134    H    0.42670   0.96070   0.75000   1.000
    C203    C    0.48870   0.89280   0.69070   1.000
    H135    H    0.48460   0.94310   0.62740   1.000
    H136    H    0.48060   0.86100   0.74950   1.000
    C204    C    0.52010   0.83320   0.69220   1.000
    N68     N    0.52500   0.76600   0.72160   1.000
    N69     N    0.54270   0.84640   0.66270   1.000
    C205    C    0.55430   0.70890   0.71800   1.000
    C206    C    0.57440   0.78920   0.66390   1.000
    C207    C    0.55750   0.62940   0.74600   1.000
    N70     N    0.57910   0.71630   0.69110   1.000
    C208    C    0.59940   0.80030   0.63430   1.000
    C209    C    0.58840   0.57120   0.75060   1.000
    C210    C    0.52880   0.61060   0.76870   1.000
    C211    C    0.63360   0.75590   0.64080   1.000
    C212    C    0.58950   0.85400   0.59800   1.000
    C213    C    0.59260   0.49910   0.77800   1.000
    H137    H    0.60790   0.58120   0.73400   1.000
    C214    C    0.53440   0.53630   0.79540   1.000
    H138    H    0.50610   0.64720   0.76630   1.000
    H139    H    0.64030   0.71330   0.66360   1.000
    C215    C    0.65870   0.77300   0.61390   1.000
    H140    H    0.56410   0.88000   0.58950   1.000
    C216    C    0.61880   0.86700   0.57420   1.000
    N71     N    0.56590   0.47980   0.79970   1.000
    H141    H    0.61550   0.46280   0.78120   1.000
    H142    H    0.51500   0.52360   0.81180   1.000
    N72     N    0.65590   0.83200   0.58280   1.000
    H143    H    0.68170   0.73680   0.61840   1.000
    H144    H    0.61200   0.90490   0.54940   1.000
    I53     I    0.60763   0.25654   0.81922   1.000
    I54     I    0.51512   0.36742   0.88113   1.000
    I55     I    0.76029   0.78400   0.57851   1.000
    I56     I    0.65890   0.79720   0.46870   1.000
    Zn29    Zn   0.19190   0.63790   0.04080   1.000
    I57     I    0.14950   0.68730   0.96580   1.000
    I58     I    0.25480   0.71340   0.07320   1.000
    Zn30    Zn   0.37610   0.89700   0.18660   1.000
    I59     I    0.35350   0.91330   0.26160   1.000
    I60     I    0.38870   0.75420   0.15020   1.000
    I61     I    0.61830   0.72600   0.31600   1.000
    I62     I    0.52160   0.64270   0.38030   1.000
    Zn31    Zn   0.87330   0.59520   0.69550   1.000
    I63     I    0.88390   0.72830   0.66340   1.000
    I64     I    0.85130   0.57400   0.76690   1.000
    Zn32    Zn   0.17260   0.35040   0.52670   1.000
    I65     I    0.12540   0.32110   0.45530   1.000
    I66     I    0.23390   0.26210   0.55050   1.000
    Zn33    Zn   0.57920   0.61820   0.34890   1.000
    I67     I    0.63520   0.16990   0.95450   1.000
    Zn34    Zn   0.67770   0.14190   0.03040   1.000
    N73     N    0.69370   0.00130   0.03490   1.000
    I68     I    0.74300   0.22020   0.06130   1.000
    N74     N    0.64630   0.15730   0.07730   1.000
    C217    C    0.66560   0.95290   0.00570   1.000
    C218    C    0.72400   0.96670   0.06160   1.000
    C219    C    0.65840   0.20780   0.11340   1.000
    C220    C    0.60880   0.12040   0.06980   1.000
    H145    H    0.64370   0.98080   0.98670   1.000
    C221    C    0.67090   0.86300   0.00550   1.000
    C222    C    0.73010   0.87650   0.06110   1.000
    H146    H    0.74190   0.00340   0.08150   1.000
    C223    C    0.63330   0.22630   0.14290   1.000
    H147    H    0.68440   0.23190   0.11940   1.000
    C224    C    0.58280   0.13760   0.09630   1.000
    H148    H    0.60080   0.08180   0.04550   1.000
    H149    H    0.65190   0.82690   0.98660   1.000
    C225    C    0.70390   0.82350   0.03280   1.000
    H150    H    0.75250   0.85100   0.08030   1.000
    H151    H    0.64250   0.26150   0.16840   1.000
    C226    C    0.59560   0.19230   0.13400   1.000
    H152    H    0.55680   0.11350   0.08960   1.000
    C227    C    0.71010   0.72350   0.03140   1.000
    C228    C    0.56780   0.20600   0.16420   1.000
    N75     N    0.73990   0.69010   0.05980   1.000
    N76     N    0.68400   0.68060   0.99840   1.000
    N77     N    0.57650   0.27520   0.19070   1.000
    N78     N    0.54100   0.14640   0.16230   1.000
    C229    C    0.74410   0.59970   0.05300   1.000
    C230    C    0.69050   0.59510   0.99640   1.000
    C231    C    0.55190   0.28360   0.21780   1.000
    C232    C    0.52040   0.15820   0.19200   1.000
    N79     N    0.72080   0.55070   0.02320   1.000
    C233    C    0.77420   0.55600   0.08470   1.000
    C234    C    0.66570   0.54660   0.96150   1.000
    C235    C    0.55570   0.36410   0.24630   1.000
    N80     N    0.52390   0.22660   0.22140   1.000
    C236    C    0.48720   0.09510   0.19490   1.000
    C237    C    0.80030   0.60080   0.11900   1.000
    C238    C    0.78030   0.46540   0.08210   1.000
    C239    C    0.67160   0.45550   0.95530   1.000
    C240    C    0.63520   0.58450   0.93080   1.000
    C241    C    0.58610   0.42230   0.24960   1.000
    C242    C    0.52750   0.38390   0.26980   1.000
    C243    C    0.46920   0.08760   0.23060   1.000
    C244    C    0.47510   0.03700   0.16070   1.000
    C245    C    0.82940   0.54780   0.14740   1.000
    H153    H    0.79860   0.66300   0.12310   1.000
    H154    H    0.76350   0.43220   0.05960   1.000
    C246    C    0.80900   0.42360   0.11030   1.000
    C247    C    0.64570   0.40960   0.91970   1.000
    H155    H    0.69250   0.42470   0.97430   1.000
    H156    H    0.63260   0.64720   0.93080   1.000
    C248    C    0.60910   0.53780   0.90100   1.000
    C249    C    0.58860   0.49180   0.27970   1.000
    H157    H    0.60510   0.41600   0.23200   1.000
    C250    C    0.53100   0.45230   0.29880   1.000
    H158    H    0.50450   0.34790   0.26560   1.000
    C251    C    0.43900   0.03480   0.22870   1.000
    H159    H    0.47910   0.12110   0.25650   1.000
    C252    C    0.44310   0.98000   0.16090   1.000
    H160    H    0.48840   0.03490   0.13710   1.000
    N81     N    0.83420   0.46570   0.14430   1.000
    H161    H    0.84680   0.57750   0.17080   1.000
    H162    H    0.81220   0.36170   0.10660   1.000
    N82     N    0.61530   0.45100   0.89380   1.000
    H163    H    0.65030   0.34880   0.91470   1.000
    H164    H    0.58600   0.56620   0.88470   1.000
    N83     N    0.56240   0.50610   0.30350   1.000
    H165    H    0.61060   0.53090   0.28320   1.000
    H166    H    0.51140   0.46180   0.31540   1.000
    H167    H    0.42600   0.03520   0.25240   1.000
    N84     N    0.42520   0.97900   0.19410   1.000
    H168    H    0.43410   0.94150   0.13670   1.000
    Zn35    Zn   0.87550   0.40250   0.19320   1.000
    Zn36    Zn   0.57503   0.38302   0.84734   1.000
    Zn37    Zn   0.56910   0.59820   0.35260   1.000
    N85     N    0.61320   0.53710   0.39890   1.000
    I69     I    0.60287   0.73060   0.32640   1.000
    I70     I    0.50781   0.61250   0.38300   1.000
    I71     I    0.35280   0.91920   0.26200   1.000
    I72     I    0.39160   0.76040   0.15920   1.000
    C253    C    0.60790   0.45370   0.40650   1.000
    C254    C    0.64520   0.57410   0.42320   1.000
    C255    C    0.63100   0.40380   0.43900   1.000
    H169    H    0.58600   0.42490   0.38800   1.000
    C256    C    0.67070   0.53090   0.45580   1.000
    H170    H    0.65070   0.63420   0.41760   1.000
    H171    H    0.62520   0.34370   0.44410   1.000
    C257    C    0.66430   0.44810   0.46440   1.000
    H172    H    0.69320   0.56080   0.47240   1.000
    C258    C    0.69170   0.39470   0.50040   1.000
    N86     N    0.68190   0.30820   0.50340   1.000
    N87     N    0.72050   0.43780   0.52450   1.000
    C259    C    0.70890   0.26240   0.53300   1.000
    C260    C    0.74350   0.38880   0.55750   1.000
    N88     N    0.73810   0.30280   0.56070   1.000
    C261    C    0.70480   0.16890   0.53430   1.000
    C262    C    0.77610   0.43950   0.58660   1.000
    C263    C    0.73150   0.12060   0.56590   1.000
    C264    C    0.67700   0.12560   0.50490   1.000
    C265    C    0.80370   0.39280   0.61850   1.000
    C266    C    0.78030   0.52580   0.58220   1.000
    H173    H    0.75240   0.14570   0.58730   1.000
    C267    C    0.72230   0.02330   0.56100   1.000
    C268    C    0.67330   0.03600   0.50600   1.000
    H174    H    0.65940   0.15850   0.48280   1.000
    C269    C    0.83210   0.43670   0.64660   1.000
    H175    H    0.80220   0.33010   0.62000   1.000
    C270    C    0.81290   0.57060   0.61100   1.000
    H176    H    0.76220   0.55800   0.56050   1.000
    N89     N    0.69650   0.98260   0.53490   1.000
    H177    H    0.73940   0.98670   0.58170   1.000
    H178    H    0.65280   0.00970   0.48460   1.000
    N90     N    0.83770   0.52730   0.64190   1.000
    H179    H    0.84860   0.40560   0.67010   1.000
    H180    H    0.81650   0.63240   0.60740   1.000
    Zn38    Zn   0.69520   0.84940   0.54240   1.000
    Zn39    Zn   0.88150   0.59480   0.68420   1.000
    I73     I    0.89320   0.73950   0.64776   1.000
    N91     N    0.92650   0.51210   0.69180   1.000
    I74     I    0.86008   0.58710   0.75576   1.000
    C271    C    0.94690   0.50700   0.65520   1.000
    C272    C    0.93880   0.45920   0.72550   1.000
    H181    H    0.93970   0.54860   0.63190   1.000
    C273    C    0.97440   0.44900   0.65310   1.000
    C274    C    0.97140   0.39820   0.72480   1.000
    H182    H    0.92670   0.46070   0.75000   1.000
    C275    C    0.98870   0.39280   0.69070   1.000
    H183    H    0.98460   0.44310   0.62740   1.000
    H184    H    0.98060   0.36100   0.74950   1.000
    C276    C    0.02010   0.33320   0.69220   1.000
    N92     N    0.02500   0.26600   0.72160   1.000
    N93     N    0.04270   0.34640   0.66270   1.000
    C277    C    0.05430   0.20890   0.71800   1.000
    C278    C    0.07440   0.28920   0.66390   1.000
    C279    C    0.05750   0.12940   0.74600   1.000
    N94     N    0.07910   0.21630   0.69110   1.000
    C280    C    0.09940   0.30030   0.63430   1.000
    C281    C    0.08840   0.07120   0.75060   1.000
    C282    C    0.02880   0.11060   0.76870   1.000
    C283    C    0.13360   0.25590   0.64080   1.000
    C284    C    0.08950   0.35400   0.59800   1.000
    C285    C    0.09260   0.99910   0.77800   1.000
    H185    H    0.10790   0.08120   0.73400   1.000
    C286    C    0.03440   0.03630   0.79540   1.000
    H186    H    0.00610   0.14720   0.76630   1.000
    H187    H    0.14030   0.21330   0.66360   1.000
    C287    C    0.15870   0.27300   0.61390   1.000
    H188    H    0.06410   0.38000   0.58950   1.000
    C288    C    0.11880   0.36700   0.57420   1.000
    N95     N    0.06590   0.97980   0.79970   1.000
    H189    H    0.11550   0.96280   0.78120   1.000
    H190    H    0.01500   0.02360   0.81180   1.000
    N96     N    0.15590   0.33200   0.58280   1.000
    H191    H    0.18170   0.23680   0.61840   1.000
    H192    H    0.11200   0.40490   0.54940   1.000
    I75     I    0.10763   0.75654   0.81922   1.000
    I76     I    0.01512   0.86742   0.88113   1.000
    I77     I    0.26029   0.28400   0.57851   1.000
    I78     I    0.15890   0.29720   0.46870   1.000
    Zn40    Zn   0.69190   0.13790   0.04080   1.000
    I79     I    0.64950   0.18730   0.96580   1.000
    I80     I    0.75480   0.21340   0.07320   1.000
    Zn41    Zn   0.87610   0.39700   0.18660   1.000
    I81     I    0.85350   0.41330   0.26160   1.000
    I82     I    0.88870   0.25420   0.15020   1.000
    I83     I    0.11830   0.22600   0.31600   1.000
    I84     I    0.02160   0.14270   0.38030   1.000
    Zn42    Zn   0.37330   0.09520   0.69550   1.000
    I85     I    0.38390   0.22830   0.66340   1.000
    I86     I    0.35130   0.07400   0.76690   1.000
    Zn43    Zn   0.67260   0.85040   0.52670   1.000
    I87     I    0.62540   0.82110   0.45530   1.000
    I88     I    0.73390   0.76210   0.55050   1.000
    Zn44    Zn   0.07920   0.11820   0.34890   1.000
