data_functionalizedCrystal
_audit_creation_method	'EQeq! by Chris Wilmer'
_symmetry_space_group_name_H-M	'P1'
_symmetry_Int_Tables_number	1
_symmetry_cell_setting	triclinic
loop_
_symmetry_equiv_pos_as_xyz
  x,y,z
_cell_length_a	32.839
_cell_length_b	32.839
_cell_length_c	30.571
_cell_angle_alpha	90
_cell_angle_beta	90
_cell_angle_gamma	120
loop_
_atom_site_label
_atom_site_type_symbol
_atom_site_fract_x
_atom_site_fract_y
_atom_site_fract_z
_atom_site_charge
Mof_Fe	Fe	0.1572	0.3417	0.0299	2.208
Mof_O 	O 	0.1497	0.39571	0.05443	-0.504
Mof_O 	O 	0.12686	0.3721	0.12301	-0.511
Mof_O 	O 	0.03319	0.43691	0.19185	-0.535
Mof_O 	O 	0.04137	0.504	0.16525	-0.566
Mof_O 	O 	0.12436	0.72665	0.0536	-0.519
Mof_O 	O 	0.17431	0.78096	0.00699	-0.528
Mof_O 	O 	0.29691	0.75456	0.938	-0.445
Mof_H 	H 	0.3223	0.7613	0.9254	0.197
Mof_O 	O 	0.30055	0.69259	0.9572	-0.394
Mof_O 	O 	0.13055	0.35289	0.97249	-0.285
Mof_C 	C 	0.13478	0.39904	0.09116	0.485
Mof_C 	C 	0.12524	0.43881	0.09669	-0.147
Mof_C 	C 	0.09469	0.43642	0.12895	0.091
Mof_H 	H 	0.0811	0.4105	0.1485	0.038
Mof_C 	C 	0.08405	0.47239	0.13248	-0.156
Mof_C 	C 	0.10526	0.51076	0.10496	0.02
Mof_H 	H 	0.098	0.5352	0.108	0.047
Mof_C 	C 	0.13741	0.51455	0.07252	0.001
Mof_C 	C 	0.14626	0.4773	0.06868	0.016
Mof_H 	H 	0.167	0.4783	0.0465	0.052
Mof_C 	C 	0.05021	0.47092	0.16602	0.51
Mof_C 	C 	0.16155	0.55693	0.04567	-0.043
Mof_H 	H 	0.1867	0.5606	0.0277	0.061
Mof_C 	C 	0.15064	0.59002	0.04493	-0.049
Mof_H 	H 	0.1227	0.5828	0.0603	0.059
Mof_C 	C 	0.1743	0.63643	0.02436	0.012
Mof_C 	C 	0.15619	0.66604	0.03177	0.004
Mof_H 	H 	0.1284	0.6549	0.0488	0.055
Mof_C 	C 	0.17722	0.71101	0.01516	-0.138
Mof_C 	C 	0.21765	0.72739	0.99005	0.071
Mof_H 	H 	0.232	0.758	0.9777	0.049
Mof_C 	C 	0.23694	0.69899	0.98304	-0.12
Mof_C 	C 	0.21543	0.65364	0.99976	-0.001
Mof_H 	H 	0.2288	0.6342	0.9944	0.054
Mof_C 	C 	0.15685	0.74178	0.02602	0.485
Mof_C 	C 	0.2817	0.7164	0.9574	0.444
Mof_Co	Co	0.1547	0.343	0.0306	-0.437
Mof_Fe	Fe	0.82387	0.67503	0.36323	2.207
Mof_O 	O 	0.81637	0.72904	0.38776	-0.505
Mof_O 	O 	0.79353	0.70543	0.45634	-0.511
Mof_O 	O 	0.69986	0.77024	0.52518	-0.532
Mof_O 	O 	0.70804	0.83733	0.49858	-0.562
Mof_O 	O 	0.79103	0.05998	0.38693	-0.523
Mof_O 	O 	0.84098	0.11429	0.34032	-0.53
Mof_O 	O 	0.96358	0.08789	0.27133	-0.454
Mof_H 	H 	0.98897	0.09463	0.25873	0.214
Mof_O 	O 	0.96722	0.02592	0.29053	-0.393
Mof_O 	O 	0.79722	0.68622	0.30582	-0.284
Mof_C 	C 	0.80145	0.73237	0.42449	0.485
Mof_C 	C 	0.79191	0.77214	0.43002	-0.144
Mof_C 	C 	0.76136	0.76975	0.46228	0.089
Mof_H 	H 	0.74777	0.74383	0.48183	0.04
Mof_C 	C 	0.75072	0.80572	0.46581	-0.152
Mof_C 	C 	0.77193	0.84409	0.43829	0.017
Mof_H 	H 	0.76467	0.86853	0.44133	0.05
Mof_C 	C 	0.80408	0.84788	0.40585	0.007
Mof_C 	C 	0.81293	0.81063	0.40201	0.013
Mof_H 	H 	0.83367	0.81163	0.37983	0.053
Mof_C 	C 	0.71688	0.80425	0.49935	0.509
Mof_C 	C 	0.82822	0.89026	0.379	-0.052
Mof_H 	H 	0.85337	0.89393	0.36103	0.066
Mof_C 	C 	0.81731	0.92335	0.37826	-0.034
Mof_H 	H 	0.78937	0.91613	0.39363	0.056
Mof_C 	C 	0.84097	0.96976	0.35769	-0.007
Mof_C 	C 	0.82286	0.99937	0.3651	0.036
Mof_H 	H 	0.79507	0.98823	0.38213	0.049
Mof_C 	C 	0.84389	0.04434	0.34849	-0.165
Mof_C 	C 	0.88432	0.06072	0.32338	0.092
Mof_H 	H 	0.89867	0.09133	0.31103	0.043
Mof_C 	C 	0.90361	0.03232	0.31637	-0.146
Mof_C 	C 	0.8821	0.98697	0.33309	0.031
Mof_H 	H 	0.89547	0.96753	0.32773	0.047
Mof_C 	C 	0.82352	0.07511	0.35935	0.493
Mof_C 	C 	0.94837	0.04973	0.29073	0.454
Mof_Co	Co	0.82137	0.67633	0.36393	-0.438
Mof_Fe	Fe	0.49053	0.00837	0.69657	2.21
Mof_O 	O 	0.48303	0.06238	0.7211	-0.507
Mof_O 	O 	0.46019	0.03877	0.78968	-0.516
Mof_O 	O 	0.36652	0.10358	0.85852	-0.533
Mof_O 	O 	0.3747	0.17067	0.83192	-0.563
Mof_O 	O 	0.45769	0.39332	0.72027	-0.518
Mof_O 	O 	0.50764	0.44763	0.67366	-0.528
Mof_O 	O 	0.63024	0.42123	0.60467	-0.445
Mof_H 	H 	0.65563	0.42797	0.59207	0.197
Mof_O 	O 	0.63388	0.35926	0.62387	-0.394
Mof_O 	O 	0.46388	0.01956	0.63916	-0.289
Mof_C 	C 	0.46811	0.06571	0.75783	0.486
Mof_C 	C 	0.45857	0.10548	0.76336	-0.148
Mof_C 	C 	0.42802	0.10309	0.79562	0.091
Mof_H 	H 	0.41443	0.07717	0.81517	0.038
Mof_C 	C 	0.41738	0.13906	0.79915	-0.155
Mof_C 	C 	0.43859	0.17743	0.77163	0.02
Mof_H 	H 	0.43133	0.20187	0.77467	0.048
Mof_C 	C 	0.47074	0.18122	0.73919	0.001
Mof_C 	C 	0.47959	0.14397	0.73535	0.016
Mof_H 	H 	0.50033	0.14497	0.71317	0.051
Mof_C 	C 	0.38354	0.13759	0.83269	0.51
Mof_C 	C 	0.49488	0.2236	0.71234	-0.043
Mof_H 	H 	0.52003	0.22727	0.69437	0.061
Mof_C 	C 	0.48397	0.25669	0.7116	-0.05
Mof_H 	H 	0.45603	0.24947	0.72697	0.06
Mof_C 	C 	0.50763	0.3031	0.69103	0.013
Mof_C 	C 	0.48952	0.33271	0.69844	0.004
Mof_H 	H 	0.46173	0.32157	0.71547	0.056
Mof_C 	C 	0.51055	0.37768	0.68183	-0.138
Mof_C 	C 	0.55098	0.39406	0.65672	0.071
Mof_H 	H 	0.56533	0.42467	0.64437	0.049
Mof_C 	C 	0.57027	0.36566	0.64971	-0.12
Mof_C 	C 	0.54876	0.32031	0.66643	-0.001
Mof_H 	H 	0.56213	0.30087	0.66107	0.055
Mof_C 	C 	0.49018	0.40845	0.69269	0.485
Mof_C 	C 	0.61503	0.38307	0.62407	0.444
Mof_Co	Co	0.48803	0.00967	0.69727	-0.443
Mof_Fe	Fe	0.6583	0.8155	0.0299	2.206
Mof_O 	O 	0.60429	0.75399	0.05443	-0.505
Mof_O 	O 	0.6279	0.75476	0.12301	-0.511
Mof_O 	O 	0.56309	0.59628	0.19185	-0.532
Mof_O 	O 	0.496	0.53737	0.16525	-0.562
Mof_O 	O 	0.27335	0.39771	0.0536	-0.518
Mof_O 	O 	0.21904	0.39335	0.00699	-0.528
Mof_O 	O 	0.24544	0.54235	0.938	-0.445
Mof_H 	H 	0.2387	0.561	0.9254	0.197
Mof_O 	O 	0.30741	0.60796	0.9572	-0.394
Mof_O 	O 	0.64711	0.77766	0.97249	-0.284
Mof_C 	C 	0.60096	0.73574	0.09116	0.485
Mof_C 	C 	0.56119	0.68643	0.09669	-0.146
Mof_C 	C 	0.56358	0.65827	0.12895	0.091
Mof_H 	H 	0.5895	0.6706	0.1485	0.039
Mof_C 	C 	0.52761	0.61166	0.13248	-0.154
Mof_C 	C 	0.48924	0.5945	0.10496	0.02
Mof_H 	H 	0.4648	0.5628	0.108	0.048
Mof_C 	C 	0.48545	0.62286	0.07252	0.002
Mof_C 	C 	0.5227	0.66896	0.06868	0.016
Mof_H 	H 	0.5217	0.6887	0.0465	0.052
Mof_C 	C 	0.52908	0.57929	0.16602	0.509
Mof_C 	C 	0.44307	0.60462	0.04567	-0.043
Mof_H 	H 	0.4394	0.6261	0.0277	0.061
Mof_C 	C 	0.40998	0.56062	0.04493	-0.049
Mof_H 	H 	0.4172	0.5399	0.0603	0.06
Mof_C 	C 	0.36357	0.53787	0.02436	0.013
Mof_C 	C 	0.33396	0.49015	0.03177	0.004
Mof_H 	H 	0.3451	0.4735	0.0488	0.056
Mof_C 	C 	0.28899	0.46621	0.01516	-0.138
Mof_C 	C 	0.27261	0.49026	0.99005	0.071
Mof_H 	H 	0.242	0.474	0.9777	0.049
Mof_C 	C 	0.30101	0.53795	0.98304	-0.12
Mof_C 	C 	0.34636	0.56179	0.99976	-0.001
Mof_H 	H 	0.3658	0.5946	0.9944	0.055
Mof_C 	C 	0.25822	0.41507	0.02602	0.485
Mof_C 	C 	0.2836	0.5653	0.9574	0.444
Mof_Co	Co	0.657	0.8117	0.0306	-0.437
Mof_Fe	Fe	0.32497	0.14883	0.36323	2.207
Mof_O 	O 	0.27096	0.08732	0.38776	-0.508
Mof_O 	O 	0.29457	0.08809	0.45634	-0.514
Mof_O 	O 	0.22976	0.92961	0.52518	-0.532
Mof_O 	O 	0.16267	0.8707	0.49858	-0.564
Mof_O 	O 	0.94002	0.73104	0.38693	-0.513
Mof_O 	O 	0.88571	0.72668	0.34032	-0.525
Mof_O 	O 	0.91211	0.87568	0.27133	-0.44
Mof_H 	H 	0.90537	0.89433	0.25873	0.196
Mof_O 	O 	0.97408	0.94129	0.29053	-0.377
Mof_O 	O 	0.31378	0.11099	0.30582	-0.285
Mof_C 	C 	0.26763	0.06907	0.42449	0.493
Mof_C 	C 	0.22786	0.01976	0.43002	-0.171
Mof_C 	C 	0.23025	0.9916	0.46228	0.136
Mof_H 	H 	0.25617	0.00393	0.48183	0.016
Mof_C 	C 	0.19428	0.94499	0.46581	-0.17
Mof_C 	C 	0.15591	0.92783	0.43829	0.029
Mof_H 	H 	0.13147	0.89613	0.44133	0.045
Mof_C 	C 	0.15212	0.95619	0.40585	0.005
Mof_C 	C 	0.18937	0.00229	0.40201	0.014
Mof_H 	H 	0.18837	0.02203	0.37983	0.05
Mof_C 	C 	0.19575	0.91262	0.49935	0.516
Mof_C 	C 	0.10974	0.93795	0.379	-0.036
Mof_H 	H 	0.10607	0.95943	0.36103	0.062
Mof_C 	C 	0.07665	0.89395	0.37826	-0.062
Mof_H 	H 	0.08387	0.87323	0.39363	0.064
Mof_C 	C 	0.03024	0.8712	0.35769	0.035
Mof_C 	C 	0.00063	0.82348	0.3651	-0.029
Mof_H 	H 	0.01177	0.80683	0.38213	0.063
Mof_C 	C 	0.95566	0.79954	0.34849	-0.109
Mof_C 	C 	0.93928	0.82359	0.32338	0.049
Mof_H 	H 	0.90867	0.80733	0.31103	0.057
Mof_C 	C 	0.96768	0.87128	0.31637	-0.09
Mof_C 	C 	0.01303	0.89512	0.33309	-0.034
Mof_H 	H 	0.03247	0.92793	0.32773	0.065
Mof_C 	C 	0.92489	0.7484	0.35935	0.477
Mof_C 	C 	0.95027	0.89863	0.29073	0.431
Mof_Co	Co	0.32367	0.14503	0.36393	-0.437
Mof_Fe	Fe	0.99163	0.48217	0.69657	2.201
Mof_O 	O 	0.93762	0.42066	0.7211	-0.503
Mof_O 	O 	0.96123	0.42143	0.78968	-0.506
Mof_O 	O 	0.89642	0.26295	0.85852	-0.531
Mof_O 	O 	0.82933	0.20404	0.83192	-0.562
Mof_O 	O 	0.60668	0.06438	0.72027	-0.519
Mof_O 	O 	0.55237	0.06002	0.67366	-0.53
Mof_O 	O 	0.57877	0.20902	0.60467	-0.446
Mof_H 	H 	0.57203	0.22767	0.59207	0.197
Mof_O 	O 	0.64074	0.27463	0.62387	-0.394
Mof_O 	O 	0.98044	0.44433	0.63916	-0.278
Mof_C 	C 	0.93429	0.40241	0.75783	0.485
Mof_C 	C 	0.89452	0.3531	0.76336	-0.145
Mof_C 	C 	0.89691	0.32494	0.79562	0.09
Mof_H 	H 	0.92283	0.33727	0.81517	0.041
Mof_C 	C 	0.86094	0.27833	0.79915	-0.153
Mof_C 	C 	0.82257	0.26117	0.77163	0.019
Mof_H 	H 	0.79813	0.22947	0.77467	0.048
Mof_C 	C 	0.81878	0.28953	0.73919	0.003
Mof_C 	C 	0.85603	0.33563	0.73535	0.015
Mof_H 	H 	0.85503	0.35537	0.71317	0.052
Mof_C 	C 	0.86241	0.24596	0.83269	0.509
Mof_C 	C 	0.7764	0.27129	0.71234	-0.043
Mof_H 	H 	0.77273	0.29277	0.69437	0.062
Mof_C 	C 	0.74331	0.22729	0.7116	-0.049
Mof_H 	H 	0.75053	0.20657	0.72697	0.06
Mof_C 	C 	0.6969	0.20454	0.69103	0.013
Mof_C 	C 	0.66729	0.15682	0.69844	0.004
Mof_H 	H 	0.67843	0.14017	0.71547	0.055
Mof_C 	C 	0.62232	0.13288	0.68183	-0.138
Mof_C 	C 	0.60594	0.15693	0.65672	0.071
Mof_H 	H 	0.57533	0.14067	0.64437	0.048
Mof_C 	C 	0.63434	0.20462	0.64971	-0.12
Mof_C 	C 	0.67969	0.22846	0.66643	-0.001
Mof_H 	H 	0.69913	0.26127	0.66107	0.055
Mof_C 	C 	0.59155	0.08174	0.69269	0.486
Mof_C 	C 	0.61693	0.23197	0.62407	0.444
Mof_Co	Co	0.99033	0.47837	0.69727	-0.428
Mof_Fe	Fe	0.1845	0.8428	0.0299	2.207
Mof_O 	O 	0.24601	0.8503	0.05443	-0.505
Mof_O 	O 	0.24524	0.87314	0.12301	-0.51
Mof_O 	O 	0.40372	0.96681	0.19185	-0.526
Mof_O 	O 	0.46263	0.95863	0.16525	-0.557
Mof_O 	O 	0.60229	0.87564	0.0536	-0.517
Mof_O 	O 	0.60665	0.82569	0.00699	-0.528
Mof_O 	O 	0.45765	0.70309	0.938	-0.445
Mof_H 	H 	0.439	0.6777	0.9254	0.197
Mof_O 	O 	0.39204	0.69945	0.9572	-0.394
Mof_O 	O 	0.22234	0.86945	0.97249	-0.283
Mof_C 	C 	0.26426	0.86522	0.09116	0.485
Mof_C 	C 	0.31357	0.87476	0.09669	-0.145
Mof_C 	C 	0.34173	0.90531	0.12895	0.09
Mof_H 	H 	0.3294	0.9189	0.1485	0.041
Mof_C 	C 	0.38834	0.91595	0.13248	-0.152
Mof_C 	C 	0.4055	0.89474	0.10496	0.019
Mof_H 	H 	0.4372	0.902	0.108	0.049
Mof_C 	C 	0.37714	0.86259	0.07252	0.003
Mof_C 	C 	0.33104	0.85374	0.06868	0.015
Mof_H 	H 	0.3113	0.833	0.0465	0.052
Mof_C 	C 	0.42071	0.94979	0.16602	0.508
Mof_C 	C 	0.39538	0.83845	0.04567	-0.043
Mof_H 	H 	0.3739	0.8133	0.0277	0.062
Mof_C 	C 	0.43938	0.84936	0.04493	-0.049
Mof_H 	H 	0.4601	0.8773	0.0603	0.061
Mof_C 	C 	0.46213	0.8257	0.02436	0.014
Mof_C 	C 	0.50985	0.84381	0.03177	0.003
Mof_H 	H 	0.5265	0.8716	0.0488	0.057
Mof_C 	C 	0.53379	0.82278	0.01516	-0.137
Mof_C 	C 	0.50974	0.78235	0.99005	0.071
Mof_H 	H 	0.526	0.768	0.9777	0.049
Mof_C 	C 	0.46205	0.76306	0.98304	-0.12
Mof_C 	C 	0.43821	0.78457	0.99976	-0.001
Mof_H 	H 	0.4054	0.7712	0.9944	0.055
Mof_C 	C 	0.58493	0.84315	0.02602	0.485
Mof_C 	C 	0.4347	0.7183	0.9574	0.444
Mof_Co	Co	0.1883	0.8453	0.0306	-0.438
Mof_Fe	Fe	0.85117	0.17613	0.36323	2.207
Mof_O 	O 	0.91268	0.18363	0.38776	-0.502
Mof_O 	O 	0.91191	0.20647	0.45634	-0.508
Mof_O 	O 	0.07039	0.30014	0.52518	-0.533
Mof_O 	O 	0.1293	0.29196	0.49858	-0.561
Mof_O 	O 	0.26896	0.20897	0.38693	-0.518
Mof_O 	O 	0.27332	0.15902	0.34032	-0.528
Mof_O 	O 	0.12432	0.03642	0.27133	-0.438
Mof_H 	H 	0.10567	0.01103	0.25873	0.181
Mof_O 	O 	0.05871	0.03278	0.29053	-0.395
Mof_O 	O 	0.88901	0.20278	0.30582	-0.282
Mof_C 	C 	0.93093	0.19855	0.42449	0.478
Mof_C 	C 	0.98024	0.20809	0.43002	-0.123
Mof_C 	C 	0.0084	0.23864	0.46228	0.047
Mof_H 	H 	0.99607	0.25223	0.48183	0.062
Mof_C 	C 	0.05501	0.24928	0.46581	-0.14
Mof_C 	C 	0.07217	0.22807	0.43829	0.014
Mof_H 	H 	0.10387	0.23533	0.44133	0.049
Mof_C 	C 	0.04381	0.19592	0.40585	-0.007
Mof_C 	C 	0.99771	0.18707	0.40201	0.021
Mof_H 	H 	0.97797	0.16633	0.37983	0.053
Mof_C 	C 	0.08738	0.28312	0.49935	0.503
Mof_C 	C 	0.06205	0.17178	0.379	-0.04
Mof_H 	H 	0.04057	0.14663	0.36103	0.057
Mof_C 	C 	0.10605	0.18269	0.37826	-0.053
Mof_H 	H 	0.12677	0.21063	0.39363	0.061
Mof_C 	C 	0.1288	0.15903	0.35769	0.014
Mof_C 	C 	0.17652	0.17714	0.3651	0.003
Mof_H 	H 	0.19317	0.20493	0.38213	0.056
Mof_C 	C 	0.20046	0.15611	0.34849	-0.138
Mof_C 	C 	0.17641	0.11568	0.32338	0.07
Mof_H 	H 	0.19267	0.10133	0.31103	0.048
Mof_C 	C 	0.12872	0.09639	0.31637	-0.119
Mof_C 	C 	0.10488	0.1179	0.33309	-0.002
Mof_H 	H 	0.07207	0.10453	0.32773	0.053
Mof_C 	C 	0.2516	0.17648	0.35935	0.485
Mof_C 	C 	0.10137	0.05163	0.29073	0.439
Mof_Co	Co	0.85497	0.17863	0.36393	-0.437
Mof_Fe	Fe	0.51783	0.50947	0.69657	2.207
Mof_O 	O 	0.57934	0.51697	0.7211	-0.505
Mof_O 	O 	0.57857	0.53981	0.78968	-0.511
Mof_O 	O 	0.73705	0.63348	0.85852	-0.532
Mof_O 	O 	0.79596	0.6253	0.83192	-0.562
Mof_O 	O 	0.93562	0.54231	0.72027	-0.513
Mof_O 	O 	0.93998	0.49236	0.67366	-0.524
Mof_O 	O 	0.79098	0.36976	0.60467	-0.445
Mof_H 	H 	0.77233	0.34437	0.59207	0.197
Mof_O 	O 	0.72537	0.36612	0.62387	-0.394
Mof_O 	O 	0.55567	0.53612	0.63916	-0.284
Mof_C 	C 	0.59759	0.53189	0.75783	0.485
Mof_C 	C 	0.6469	0.54143	0.76336	-0.146
Mof_C 	C 	0.67506	0.57198	0.79562	0.091
Mof_H 	H 	0.66273	0.58557	0.81517	0.039
Mof_C 	C 	0.72167	0.58262	0.79915	-0.154
Mof_C 	C 	0.73883	0.56141	0.77163	0.02
Mof_H 	H 	0.77053	0.56867	0.77467	0.048
Mof_C 	C 	0.71047	0.52926	0.73919	0.002
Mof_C 	C 	0.66437	0.52041	0.73535	0.016
Mof_H 	H 	0.64463	0.49967	0.71317	0.052
Mof_C 	C 	0.75404	0.61646	0.83269	0.51
Mof_C 	C 	0.72871	0.50512	0.71234	-0.042
Mof_H 	H 	0.70723	0.47997	0.69437	0.061
Mof_C 	C 	0.77271	0.51603	0.7116	-0.05
Mof_H 	H 	0.79343	0.54397	0.72697	0.061
Mof_C 	C 	0.79546	0.49237	0.69103	0.014
Mof_C 	C 	0.84318	0.51048	0.69844	0.003
Mof_H 	H 	0.85983	0.53827	0.71547	0.057
Mof_C 	C 	0.86712	0.48945	0.68183	-0.136
Mof_C 	C 	0.84307	0.44902	0.65672	0.07
Mof_H 	H 	0.85933	0.43467	0.64437	0.05
Mof_C 	C 	0.79538	0.42973	0.64971	-0.119
Mof_C 	C 	0.77154	0.45124	0.66643	-0.001
Mof_H 	H 	0.73873	0.43787	0.66107	0.055
Mof_C 	C 	0.91826	0.50982	0.69269	0.485
Mof_C 	C 	0.76803	0.38497	0.62407	0.443
Mof_Co	Co	0.52163	0.51197	0.69727	-0.437
Mof_Fe	Fe	0.3417	0.1572	0.4701	2.207
Mof_O 	O 	0.39571	0.1497	0.44557	-0.505
Mof_O 	O 	0.3721	0.12686	0.37699	-0.512
Mof_O 	O 	0.43691	0.03319	0.30815	-0.535
Mof_O 	O 	0.504	0.04137	0.33475	-0.566
Mof_O 	O 	0.72665	0.12436	0.4464	-0.519
Mof_O 	O 	0.78096	0.17431	0.49301	-0.528
Mof_O 	O 	0.75456	0.29691	0.562	-0.445
Mof_H 	H 	0.7613	0.3223	0.5746	0.197
Mof_O 	O 	0.69259	0.30055	0.5428	-0.394
Mof_O 	O 	0.35289	0.13055	0.52751	-0.285
Mof_C 	C 	0.39904	0.13478	0.40884	0.485
Mof_C 	C 	0.43881	0.12524	0.40331	-0.147
Mof_C 	C 	0.43642	0.09469	0.37105	0.091
Mof_H 	H 	0.4105	0.0811	0.3515	0.038
Mof_C 	C 	0.47239	0.08405	0.36752	-0.156
Mof_C 	C 	0.51076	0.10526	0.39504	0.02
Mof_H 	H 	0.5352	0.098	0.392	0.047
Mof_C 	C 	0.51455	0.13741	0.42748	0.001
Mof_C 	C 	0.4773	0.14626	0.43132	0.016
Mof_H 	H 	0.4783	0.167	0.4535	0.052
Mof_C 	C 	0.47092	0.05021	0.33398	0.51
Mof_C 	C 	0.55693	0.16155	0.45433	-0.043
Mof_H 	H 	0.5606	0.1867	0.4723	0.061
Mof_C 	C 	0.59002	0.15064	0.45507	-0.049
Mof_H 	H 	0.5828	0.1227	0.4397	0.059
Mof_C 	C 	0.63643	0.1743	0.47564	0.013
Mof_C 	C 	0.66604	0.15619	0.46823	0.004
Mof_H 	H 	0.6549	0.1284	0.4512	0.055
Mof_C 	C 	0.71101	0.17722	0.48484	-0.138
Mof_C 	C 	0.72739	0.21765	0.50995	0.071
Mof_H 	H 	0.758	0.232	0.5223	0.049
Mof_C 	C 	0.69899	0.23694	0.51696	-0.12
Mof_C 	C 	0.65364	0.21543	0.50024	-0.001
Mof_H 	H 	0.6342	0.2288	0.5056	0.054
Mof_C 	C 	0.74178	0.15685	0.47398	0.485
Mof_C 	C 	0.7164	0.2817	0.5426	0.444
Mof_Co	Co	0.343	0.1547	0.4694	-0.437
Mof_Fe	Fe	0.00837	0.49053	0.80343	2.21
Mof_O 	O 	0.06238	0.48303	0.7789	-0.507
Mof_O 	O 	0.03877	0.46019	0.71032	-0.516
Mof_O 	O 	0.10358	0.36652	0.64148	-0.533
Mof_O 	O 	0.17067	0.3747	0.66808	-0.563
Mof_O 	O 	0.39332	0.45769	0.77973	-0.518
Mof_O 	O 	0.44763	0.50764	0.82634	-0.528
Mof_O 	O 	0.42123	0.63024	0.89533	-0.445
Mof_H 	H 	0.42797	0.65563	0.90793	0.197
Mof_O 	O 	0.35926	0.63388	0.87613	-0.394
Mof_O 	O 	0.01956	0.46388	0.86084	-0.289
Mof_C 	C 	0.06571	0.46811	0.74217	0.486
Mof_C 	C 	0.10548	0.45857	0.73664	-0.148
Mof_C 	C 	0.10309	0.42802	0.70438	0.091
Mof_H 	H 	0.07717	0.41443	0.68483	0.038
Mof_C 	C 	0.13906	0.41738	0.70085	-0.155
Mof_C 	C 	0.17743	0.43859	0.72837	0.02
Mof_H 	H 	0.20187	0.43133	0.72533	0.048
Mof_C 	C 	0.18122	0.47074	0.76081	0.001
Mof_C 	C 	0.14397	0.47959	0.76465	0.016
Mof_H 	H 	0.14497	0.50033	0.78683	0.051
Mof_C 	C 	0.13759	0.38354	0.66731	0.51
Mof_C 	C 	0.2236	0.49488	0.78766	-0.043
Mof_H 	H 	0.22727	0.52003	0.80563	0.061
Mof_C 	C 	0.25669	0.48397	0.7884	-0.05
Mof_H 	H 	0.24947	0.45603	0.77303	0.06
Mof_C 	C 	0.3031	0.50763	0.80897	0.013
Mof_C 	C 	0.33271	0.48952	0.80156	0.004
Mof_H 	H 	0.32157	0.46173	0.78453	0.056
Mof_C 	C 	0.37768	0.51055	0.81817	-0.138
Mof_C 	C 	0.39406	0.55098	0.84328	0.071
Mof_H 	H 	0.42467	0.56533	0.85563	0.049
Mof_C 	C 	0.36566	0.57027	0.85029	-0.12
Mof_C 	C 	0.32031	0.54876	0.83357	-0.001
Mof_H 	H 	0.30087	0.56213	0.83893	0.055
Mof_C 	C 	0.40845	0.49018	0.80731	0.485
Mof_C 	C 	0.38307	0.61503	0.87593	0.444
Mof_Co	Co	0.00967	0.48803	0.80273	-0.443
Mof_Fe	Fe	0.67503	0.82387	0.13677	2.207
Mof_O 	O 	0.72904	0.81637	0.11224	-0.505
Mof_O 	O 	0.70543	0.79353	0.04366	-0.511
Mof_O 	O 	0.77024	0.69986	0.97482	-0.532
Mof_O 	O 	0.83733	0.70804	0.00142	-0.562
Mof_O 	O 	0.05998	0.79103	0.11307	-0.523
Mof_O 	O 	0.11429	0.84098	0.15968	-0.53
Mof_O 	O 	0.08789	0.96358	0.22867	-0.454
Mof_H 	H 	0.09463	0.98897	0.24127	0.214
Mof_O 	O 	0.02592	0.96722	0.20947	-0.393
Mof_O 	O 	0.68622	0.79722	0.19418	-0.284
Mof_C 	C 	0.73237	0.80145	0.07551	0.485
Mof_C 	C 	0.77214	0.79191	0.06998	-0.144
Mof_C 	C 	0.76975	0.76136	0.03772	0.089
Mof_H 	H 	0.74383	0.74777	0.01817	0.04
Mof_C 	C 	0.80572	0.75072	0.03419	-0.152
Mof_C 	C 	0.84409	0.77193	0.06171	0.017
Mof_H 	H 	0.86853	0.76467	0.05867	0.05
Mof_C 	C 	0.84788	0.80408	0.09415	0.007
Mof_C 	C 	0.81063	0.81293	0.09799	0.013
Mof_H 	H 	0.81163	0.83367	0.12017	0.053
Mof_C 	C 	0.80425	0.71688	0.00065	0.509
Mof_C 	C 	0.89026	0.82822	0.121	-0.052
Mof_H 	H 	0.89393	0.85337	0.13897	0.066
Mof_C 	C 	0.92335	0.81731	0.12174	-0.034
Mof_H 	H 	0.91613	0.78937	0.10637	0.056
Mof_C 	C 	0.96976	0.84097	0.14231	-0.007
Mof_C 	C 	0.99937	0.82286	0.1349	0.036
Mof_H 	H 	0.98823	0.79507	0.11787	0.049
Mof_C 	C 	0.04434	0.84389	0.15151	-0.165
Mof_C 	C 	0.06072	0.88432	0.17662	0.092
Mof_H 	H 	0.09133	0.89867	0.18897	0.043
Mof_C 	C 	0.03232	0.90361	0.18363	-0.146
Mof_C 	C 	0.98697	0.8821	0.16691	0.031
Mof_H 	H 	0.96753	0.89547	0.17227	0.047
Mof_C 	C 	0.07511	0.82352	0.14065	0.493
Mof_C 	C 	0.04973	0.94837	0.20927	0.454
Mof_Co	Co	0.67633	0.82137	0.13607	-0.438
Mof_Fe	Fe	0.8155	0.6583	0.4701	2.206
Mof_O 	O 	0.75399	0.60429	0.44557	-0.505
Mof_O 	O 	0.75476	0.6279	0.37699	-0.511
Mof_O 	O 	0.59628	0.56309	0.30815	-0.532
Mof_O 	O 	0.53737	0.496	0.33475	-0.562
Mof_O 	O 	0.39771	0.27335	0.4464	-0.518
Mof_O 	O 	0.39335	0.21904	0.49301	-0.528
Mof_O 	O 	0.54235	0.24544	0.562	-0.445
Mof_H 	H 	0.561	0.2387	0.5746	0.197
Mof_O 	O 	0.60796	0.30741	0.5428	-0.394
Mof_O 	O 	0.77766	0.64711	0.52751	-0.284
Mof_C 	C 	0.73574	0.60096	0.40884	0.485
Mof_C 	C 	0.68643	0.56119	0.40331	-0.146
Mof_C 	C 	0.65827	0.56358	0.37105	0.091
Mof_H 	H 	0.6706	0.5895	0.3515	0.039
Mof_C 	C 	0.61166	0.52761	0.36752	-0.154
Mof_C 	C 	0.5945	0.48924	0.39504	0.02
Mof_H 	H 	0.5628	0.4648	0.392	0.048
Mof_C 	C 	0.62286	0.48545	0.42748	0.002
Mof_C 	C 	0.66896	0.5227	0.43132	0.016
Mof_H 	H 	0.6887	0.5217	0.4535	0.052
Mof_C 	C 	0.57929	0.52908	0.33398	0.509
Mof_C 	C 	0.60462	0.44307	0.45433	-0.043
Mof_H 	H 	0.6261	0.4394	0.4723	0.061
Mof_C 	C 	0.56062	0.40998	0.45507	-0.049
Mof_H 	H 	0.5399	0.4172	0.4397	0.06
Mof_C 	C 	0.53787	0.36357	0.47564	0.013
Mof_C 	C 	0.49015	0.33396	0.46823	0.004
Mof_H 	H 	0.4735	0.3451	0.4512	0.056
Mof_C 	C 	0.46621	0.28899	0.48484	-0.138
Mof_C 	C 	0.49026	0.27261	0.50995	0.071
Mof_H 	H 	0.474	0.242	0.5223	0.049
Mof_C 	C 	0.53795	0.30101	0.51696	-0.12
Mof_C 	C 	0.56179	0.34636	0.50024	-0.001
Mof_H 	H 	0.5946	0.3658	0.5056	0.055
Mof_C 	C 	0.41507	0.25822	0.47398	0.485
Mof_C 	C 	0.5653	0.2836	0.5426	0.444
Mof_Co	Co	0.8117	0.657	0.4694	-0.437
Mof_Fe	Fe	0.48217	0.99163	0.80343	2.201
Mof_O 	O 	0.42066	0.93762	0.7789	-0.503
Mof_O 	O 	0.42143	0.96123	0.71032	-0.506
Mof_O 	O 	0.26295	0.89642	0.64148	-0.531
Mof_O 	O 	0.20404	0.82933	0.66808	-0.562
Mof_O 	O 	0.06438	0.60668	0.77973	-0.519
Mof_O 	O 	0.06002	0.55237	0.82634	-0.53
Mof_O 	O 	0.20902	0.57877	0.89533	-0.446
Mof_H 	H 	0.22767	0.57203	0.90793	0.197
Mof_O 	O 	0.27463	0.64074	0.87613	-0.394
Mof_O 	O 	0.44433	0.98044	0.86084	-0.278
Mof_C 	C 	0.40241	0.93429	0.74217	0.485
Mof_C 	C 	0.3531	0.89452	0.73664	-0.145
Mof_C 	C 	0.32494	0.89691	0.70438	0.09
Mof_H 	H 	0.33727	0.92283	0.68483	0.041
Mof_C 	C 	0.27833	0.86094	0.70085	-0.153
Mof_C 	C 	0.26117	0.82257	0.72837	0.019
Mof_H 	H 	0.22947	0.79813	0.72533	0.048
Mof_C 	C 	0.28953	0.81878	0.76081	0.003
Mof_C 	C 	0.33563	0.85603	0.76465	0.015
Mof_H 	H 	0.35537	0.85503	0.78683	0.052
Mof_C 	C 	0.24596	0.86241	0.66731	0.509
Mof_C 	C 	0.27129	0.7764	0.78766	-0.043
Mof_H 	H 	0.29277	0.77273	0.80563	0.062
Mof_C 	C 	0.22729	0.74331	0.7884	-0.049
Mof_H 	H 	0.20657	0.75053	0.77303	0.06
Mof_C 	C 	0.20454	0.6969	0.80897	0.013
Mof_C 	C 	0.15682	0.66729	0.80156	0.004
Mof_H 	H 	0.14017	0.67843	0.78453	0.055
Mof_C 	C 	0.13288	0.62232	0.81817	-0.138
Mof_C 	C 	0.15693	0.60594	0.84328	0.071
Mof_H 	H 	0.14067	0.57533	0.85563	0.048
Mof_C 	C 	0.20462	0.63434	0.85029	-0.12
Mof_C 	C 	0.22846	0.67969	0.83357	-0.001
Mof_H 	H 	0.26127	0.69913	0.83893	0.055
Mof_C 	C 	0.08174	0.59155	0.80731	0.486
Mof_C 	C 	0.23197	0.61693	0.87593	0.444
Mof_Co	Co	0.47837	0.99033	0.80273	-0.428
Mof_Fe	Fe	0.14883	0.32497	0.13677	2.207
Mof_O 	O 	0.08732	0.27096	0.11224	-0.508
Mof_O 	O 	0.08809	0.29457	0.04366	-0.514
Mof_O 	O 	0.92961	0.22976	0.97482	-0.532
Mof_O 	O 	0.8707	0.16267	0.00142	-0.564
Mof_O 	O 	0.73104	0.94002	0.11307	-0.513
Mof_O 	O 	0.72668	0.88571	0.15968	-0.525
Mof_O 	O 	0.87568	0.91211	0.22867	-0.44
Mof_H 	H 	0.89433	0.90537	0.24127	0.196
Mof_O 	O 	0.94129	0.97408	0.20947	-0.377
Mof_O 	O 	0.11099	0.31378	0.19418	-0.285
Mof_C 	C 	0.06907	0.26763	0.07551	0.493
Mof_C 	C 	0.01976	0.22786	0.06998	-0.171
Mof_C 	C 	0.9916	0.23025	0.03772	0.136
Mof_H 	H 	0.00393	0.25617	0.01817	0.017
Mof_C 	C 	0.94499	0.19428	0.03419	-0.17
Mof_C 	C 	0.92783	0.15591	0.06171	0.029
Mof_H 	H 	0.89613	0.13147	0.05867	0.045
Mof_C 	C 	0.95619	0.15212	0.09415	0.005
Mof_C 	C 	0.00229	0.18937	0.09799	0.014
Mof_H 	H 	0.02203	0.18837	0.12017	0.05
Mof_C 	C 	0.91262	0.19575	0.00065	0.516
Mof_C 	C 	0.93795	0.10974	0.121	-0.036
Mof_H 	H 	0.95943	0.10607	0.13897	0.062
Mof_C 	C 	0.89395	0.07665	0.12174	-0.062
Mof_H 	H 	0.87323	0.08387	0.10637	0.064
Mof_C 	C 	0.8712	0.03024	0.14231	0.035
Mof_C 	C 	0.82348	0.00063	0.1349	-0.029
Mof_H 	H 	0.80683	0.01177	0.11787	0.063
Mof_C 	C 	0.79954	0.95566	0.15151	-0.11
Mof_C 	C 	0.82359	0.93928	0.17662	0.049
Mof_H 	H 	0.80733	0.90867	0.18897	0.056
Mof_C 	C 	0.87128	0.96768	0.18363	-0.09
Mof_C 	C 	0.89512	0.01303	0.16691	-0.033
Mof_H 	H 	0.92793	0.03247	0.17227	0.065
Mof_C 	C 	0.7484	0.92489	0.14065	0.477
Mof_C 	C 	0.89863	0.95027	0.20927	0.432
Mof_Co	Co	0.14503	0.32367	0.13607	-0.437
Mof_Fe	Fe	0.8428	0.1845	0.4701	2.207
Mof_O 	O 	0.8503	0.24601	0.44557	-0.505
Mof_O 	O 	0.87314	0.24524	0.37699	-0.51
Mof_O 	O 	0.96681	0.40372	0.30815	-0.526
Mof_O 	O 	0.95863	0.46263	0.33475	-0.557
Mof_O 	O 	0.87564	0.60229	0.4464	-0.517
Mof_O 	O 	0.82569	0.60665	0.49301	-0.528
Mof_O 	O 	0.70309	0.45765	0.562	-0.445
Mof_H 	H 	0.6777	0.439	0.5746	0.197
Mof_O 	O 	0.69945	0.39204	0.5428	-0.394
Mof_O 	O 	0.86945	0.22234	0.52751	-0.283
Mof_C 	C 	0.86522	0.26426	0.40884	0.485
Mof_C 	C 	0.87476	0.31357	0.40331	-0.145
Mof_C 	C 	0.90531	0.34173	0.37105	0.09
Mof_H 	H 	0.9189	0.3294	0.3515	0.041
Mof_C 	C 	0.91595	0.38834	0.36752	-0.152
Mof_C 	C 	0.89474	0.4055	0.39504	0.019
Mof_H 	H 	0.902	0.4372	0.392	0.049
Mof_C 	C 	0.86259	0.37714	0.42748	0.003
Mof_C 	C 	0.85374	0.33104	0.43132	0.015
Mof_H 	H 	0.833	0.3113	0.4535	0.052
Mof_C 	C 	0.94979	0.42071	0.33398	0.508
Mof_C 	C 	0.83845	0.39538	0.45433	-0.042
Mof_H 	H 	0.8133	0.3739	0.4723	0.062
Mof_C 	C 	0.84936	0.43938	0.45507	-0.049
Mof_H 	H 	0.8773	0.4601	0.4397	0.061
Mof_C 	C 	0.8257	0.46213	0.47564	0.014
Mof_C 	C 	0.84381	0.50985	0.46823	0.003
Mof_H 	H 	0.8716	0.5265	0.4512	0.057
Mof_C 	C 	0.82278	0.53379	0.48484	-0.137
Mof_C 	C 	0.78235	0.50974	0.50995	0.071
Mof_H 	H 	0.768	0.526	0.5223	0.049
Mof_C 	C 	0.76306	0.46205	0.51696	-0.12
Mof_C 	C 	0.78457	0.43821	0.50024	-0.001
Mof_H 	H 	0.7712	0.4054	0.5056	0.055
Mof_C 	C 	0.84315	0.58493	0.47398	0.485
Mof_C 	C 	0.7183	0.4347	0.5426	0.444
Mof_Co	Co	0.8453	0.1883	0.4694	-0.438
Mof_Fe	Fe	0.50947	0.51783	0.80343	2.207
Mof_O 	O 	0.51697	0.57934	0.7789	-0.505
Mof_O 	O 	0.53981	0.57857	0.71032	-0.511
Mof_O 	O 	0.63348	0.73705	0.64148	-0.532
Mof_O 	O 	0.6253	0.79596	0.66808	-0.562
Mof_O 	O 	0.54231	0.93562	0.77973	-0.513
Mof_O 	O 	0.49236	0.93998	0.82634	-0.524
Mof_O 	O 	0.36976	0.79098	0.89533	-0.445
Mof_H 	H 	0.34437	0.77233	0.90793	0.197
Mof_O 	O 	0.36612	0.72537	0.87613	-0.394
Mof_O 	O 	0.53612	0.55567	0.86084	-0.284
Mof_C 	C 	0.53189	0.59759	0.74217	0.485
Mof_C 	C 	0.54143	0.6469	0.73664	-0.146
Mof_C 	C 	0.57198	0.67506	0.70438	0.091
Mof_H 	H 	0.58557	0.66273	0.68483	0.039
Mof_C 	C 	0.58262	0.72167	0.70085	-0.154
Mof_C 	C 	0.56141	0.73883	0.72837	0.02
Mof_H 	H 	0.56867	0.77053	0.72533	0.048
Mof_C 	C 	0.52926	0.71047	0.76081	0.002
Mof_C 	C 	0.52041	0.66437	0.76465	0.016
Mof_H 	H 	0.49967	0.64463	0.78683	0.052
Mof_C 	C 	0.61646	0.75404	0.66731	0.51
Mof_C 	C 	0.50512	0.72871	0.78766	-0.042
Mof_H 	H 	0.47997	0.70723	0.80563	0.061
Mof_C 	C 	0.51603	0.77271	0.7884	-0.05
Mof_H 	H 	0.54397	0.79343	0.77303	0.061
Mof_C 	C 	0.49237	0.79546	0.80897	0.014
Mof_C 	C 	0.51048	0.84318	0.80156	0.003
Mof_H 	H 	0.53827	0.85983	0.78453	0.057
Mof_C 	C 	0.48945	0.86712	0.81817	-0.136
Mof_C 	C 	0.44902	0.84307	0.84328	0.07
Mof_H 	H 	0.43467	0.85933	0.85563	0.05
Mof_C 	C 	0.42973	0.79538	0.85029	-0.119
Mof_C 	C 	0.45124	0.77154	0.83357	-0.001
Mof_H 	H 	0.43787	0.73873	0.83893	0.055
Mof_C 	C 	0.50982	0.91826	0.80731	0.485
Mof_C 	C 	0.38497	0.76803	0.87593	0.443
Mof_Co	Co	0.51197	0.52163	0.80273	-0.437
Mof_Fe	Fe	0.17613	0.85117	0.13677	2.207
Mof_O 	O 	0.18363	0.91268	0.11224	-0.502
Mof_O 	O 	0.20647	0.91191	0.04366	-0.508
Mof_O 	O 	0.30014	0.07039	0.97482	-0.533
Mof_O 	O 	0.29196	0.1293	0.00142	-0.561
Mof_O 	O 	0.20897	0.26896	0.11307	-0.518
Mof_O 	O 	0.15902	0.27332	0.15968	-0.528
Mof_O 	O 	0.03642	0.12432	0.22867	-0.438
Mof_H 	H 	0.01103	0.10567	0.24127	0.18
Mof_O 	O 	0.03278	0.05871	0.20947	-0.395
Mof_O 	O 	0.20278	0.88901	0.19418	-0.282
Mof_C 	C 	0.19855	0.93093	0.07551	0.478
Mof_C 	C 	0.20809	0.98024	0.06998	-0.124
Mof_C 	C 	0.23864	0.0084	0.03772	0.047
Mof_H 	H 	0.25223	0.99607	0.01817	0.061
Mof_C 	C 	0.24928	0.05501	0.03419	-0.141
Mof_C 	C 	0.22807	0.07217	0.06171	0.014
Mof_H 	H 	0.23533	0.10387	0.05867	0.049
Mof_C 	C 	0.19592	0.04381	0.09415	-0.007
Mof_C 	C 	0.18707	0.99771	0.09799	0.021
Mof_H 	H 	0.16633	0.97797	0.12017	0.053
Mof_C 	C 	0.28312	0.08738	0.00065	0.503
Mof_C 	C 	0.17178	0.06205	0.121	-0.04
Mof_H 	H 	0.14663	0.04057	0.13897	0.057
Mof_C 	C 	0.18269	0.10605	0.12174	-0.053
Mof_H 	H 	0.21063	0.12677	0.10637	0.061
Mof_C 	C 	0.15903	0.1288	0.14231	0.014
Mof_C 	C 	0.17714	0.17652	0.1349	0.003
Mof_H 	H 	0.20493	0.19317	0.11787	0.056
Mof_C 	C 	0.15611	0.20046	0.15151	-0.137
Mof_C 	C 	0.11568	0.17641	0.17662	0.07
Mof_H 	H 	0.10133	0.19267	0.18897	0.048
Mof_C 	C 	0.09639	0.12872	0.18363	-0.119
Mof_C 	C 	0.1179	0.10488	0.16691	-0.002
Mof_H 	H 	0.10453	0.07207	0.17227	0.053
Mof_C 	C 	0.17648	0.2516	0.14065	0.485
Mof_C 	C 	0.05163	0.10137	0.20927	0.438
Mof_Co	Co	0.17863	0.85497	0.13607	-0.437
Mof_Fe	Fe	0.8428	0.6583	0.9701	2.207
Mof_O 	O 	0.8503	0.60429	0.94557	-0.505
Mof_O 	O 	0.87314	0.6279	0.87699	-0.511
Mof_O 	O 	0.96681	0.56309	0.80815	-0.526
Mof_O 	O 	0.95863	0.496	0.83475	-0.557
Mof_O 	O 	0.87564	0.27335	0.9464	-0.517
Mof_O 	O 	0.82569	0.21904	0.99301	-0.528
Mof_O 	O 	0.70309	0.24544	0.062	-0.445
Mof_H 	H 	0.6777	0.2387	0.0746	0.197
Mof_O 	O 	0.69945	0.30741	0.0428	-0.394
Mof_O 	O 	0.86945	0.64711	0.02751	-0.283
Mof_C 	C 	0.86522	0.60096	0.90884	0.485
Mof_C 	C 	0.87476	0.56119	0.90331	-0.145
Mof_C 	C 	0.90531	0.56358	0.87105	0.09
Mof_H 	H 	0.9189	0.5895	0.8515	0.041
Mof_C 	C 	0.91595	0.52761	0.86752	-0.152
Mof_C 	C 	0.89474	0.48924	0.89504	0.019
Mof_H 	H 	0.902	0.4648	0.892	0.049
Mof_C 	C 	0.86259	0.48545	0.92748	0.003
Mof_C 	C 	0.85374	0.5227	0.93132	0.015
Mof_H 	H 	0.833	0.5217	0.9535	0.052
Mof_C 	C 	0.94979	0.52908	0.83398	0.508
Mof_C 	C 	0.83845	0.44307	0.95433	-0.043
Mof_H 	H 	0.8133	0.4394	0.9723	0.062
Mof_C 	C 	0.84936	0.40998	0.95507	-0.049
Mof_H 	H 	0.8773	0.4172	0.9397	0.061
Mof_C 	C 	0.8257	0.36357	0.97564	0.014
Mof_C 	C 	0.84381	0.33396	0.96823	0.004
Mof_H 	H 	0.8716	0.3451	0.9512	0.057
Mof_C 	C 	0.82278	0.28899	0.98484	-0.137
Mof_C 	C 	0.78235	0.27261	0.00995	0.071
Mof_H 	H 	0.768	0.242	0.0223	0.049
Mof_C 	C 	0.76306	0.30101	0.01696	-0.12
Mof_C 	C 	0.78457	0.34636	0.00024	-0.001
Mof_H 	H 	0.7712	0.3658	0.0056	0.055
Mof_C 	C 	0.84315	0.25822	0.97398	0.486
Mof_C 	C 	0.7183	0.2836	0.0426	0.444
Mof_Co	Co	0.8453	0.657	0.9694	-0.438
Mof_Fe	Fe	0.50947	0.99163	0.30343	2.201
Mof_O 	O 	0.51697	0.93762	0.2789	-0.503
Mof_O 	O 	0.53981	0.96123	0.21032	-0.506
Mof_O 	O 	0.63348	0.89642	0.14148	-0.531
Mof_O 	O 	0.6253	0.82933	0.16808	-0.562
Mof_O 	O 	0.54231	0.60668	0.27973	-0.518
Mof_O 	O 	0.49236	0.55237	0.32634	-0.528
Mof_O 	O 	0.36976	0.57877	0.39533	-0.445
Mof_H 	H 	0.34437	0.57203	0.40793	0.197
Mof_O 	O 	0.36612	0.64074	0.37613	-0.394
Mof_O 	O 	0.53612	0.98044	0.36084	-0.278
Mof_C 	C 	0.53189	0.93429	0.24217	0.484
Mof_C 	C 	0.54143	0.89452	0.23664	-0.145
Mof_C 	C 	0.57198	0.89691	0.20438	0.09
Mof_H 	H 	0.58557	0.92283	0.18483	0.041
Mof_C 	C 	0.58262	0.86094	0.20085	-0.153
Mof_C 	C 	0.56141	0.82257	0.22837	0.019
Mof_H 	H 	0.56867	0.79813	0.22533	0.048
Mof_C 	C 	0.52926	0.81878	0.26081	0.003
Mof_C 	C 	0.52041	0.85603	0.26465	0.015
Mof_H 	H 	0.49967	0.85503	0.28683	0.052
Mof_C 	C 	0.61646	0.86241	0.16731	0.509
Mof_C 	C 	0.50512	0.7764	0.28766	-0.043
Mof_H 	H 	0.47997	0.77273	0.30563	0.062
Mof_C 	C 	0.51603	0.74331	0.2884	-0.049
Mof_H 	H 	0.54397	0.75053	0.27303	0.06
Mof_C 	C 	0.49237	0.6969	0.30897	0.013
Mof_C 	C 	0.51048	0.66729	0.30156	0.004
Mof_H 	H 	0.53827	0.67843	0.28453	0.056
Mof_C 	C 	0.48945	0.62232	0.31817	-0.138
Mof_C 	C 	0.44902	0.60594	0.34328	0.071
Mof_H 	H 	0.43467	0.57533	0.35563	0.049
Mof_C 	C 	0.42973	0.63434	0.35029	-0.12
Mof_C 	C 	0.45124	0.67969	0.33357	-0.001
Mof_H 	H 	0.43787	0.69913	0.33893	0.055
Mof_C 	C 	0.50982	0.59155	0.30731	0.485
Mof_C 	C 	0.38497	0.61693	0.37593	0.444
Mof_Co	Co	0.51197	0.99033	0.30273	-0.428
Mof_Fe	Fe	0.17613	0.32497	0.63677	2.206
Mof_O 	O 	0.18363	0.27096	0.61224	-0.505
Mof_O 	O 	0.20647	0.29457	0.54366	-0.512
Mof_O 	O 	0.30014	0.22976	0.47482	-0.532
Mof_O 	O 	0.29196	0.16267	0.50142	-0.563
Mof_O 	O 	0.20897	0.94002	0.61307	-0.513
Mof_O 	O 	0.15902	0.88571	0.65968	-0.525
Mof_O 	O 	0.03642	0.91211	0.72867	-0.434
Mof_H 	H 	0.01103	0.90537	0.74127	0.181
Mof_O 	O 	0.03278	0.97408	0.70947	-0.383
Mof_O 	O 	0.20278	0.31378	0.69418	-0.284
Mof_C 	C 	0.19855	0.26763	0.57551	0.486
Mof_C 	C 	0.20809	0.22786	0.56998	-0.148
Mof_C 	C 	0.23864	0.23025	0.53772	0.092
Mof_H 	H 	0.25223	0.25617	0.51817	0.039
Mof_C 	C 	0.24928	0.19428	0.53419	-0.156
Mof_C 	C 	0.22807	0.15591	0.56171	0.023
Mof_H 	H 	0.23533	0.13147	0.55867	0.046
Mof_C 	C 	0.19592	0.15212	0.59415	-0.004
Mof_C 	C 	0.18707	0.18937	0.59799	0.019
Mof_H 	H 	0.16633	0.18837	0.62017	0.05
Mof_C 	C 	0.28312	0.19575	0.50065	0.51
Mof_C 	C 	0.17178	0.10974	0.621	-0.033
Mof_H 	H 	0.14663	0.10607	0.63897	0.057
Mof_C 	C 	0.18269	0.07665	0.62174	-0.066
Mof_H 	H 	0.21063	0.08387	0.60637	0.065
Mof_C 	C 	0.15903	0.03024	0.64231	0.037
Mof_C 	C 	0.17714	0.00063	0.6349	-0.032
Mof_H 	H 	0.20493	0.01177	0.61787	0.063
Mof_C 	C 	0.15611	0.95566	0.65151	-0.108
Mof_C 	C 	0.11568	0.93928	0.67662	0.047
Mof_H 	H 	0.10133	0.90867	0.68897	0.056
Mof_C 	C 	0.09639	0.96768	0.68363	-0.089
Mof_C 	C 	0.1179	0.01303	0.66691	-0.036
Mof_H 	H 	0.10453	0.03247	0.67227	0.064
Mof_C 	C 	0.17648	0.92489	0.64065	0.476
Mof_C 	C 	0.05163	0.95027	0.70927	0.428
Mof_Co	Co	0.17863	0.32367	0.63607	-0.437
Mof_Fe	Fe	0.3417	0.1845	0.9701	2.207
Mof_O 	O 	0.39571	0.24601	0.94557	-0.505
Mof_O 	O 	0.3721	0.24524	0.87699	-0.511
Mof_O 	O 	0.43691	0.40372	0.80815	-0.532
Mof_O 	O 	0.504	0.46263	0.83475	-0.562
Mof_O 	O 	0.72665	0.60229	0.9464	-0.518
Mof_O 	O 	0.78096	0.60665	0.99301	-0.528
Mof_O 	O 	0.75456	0.45765	0.062	-0.445
Mof_H 	H 	0.7613	0.439	0.0746	0.197
Mof_O 	O 	0.69259	0.39204	0.0428	-0.394
Mof_O 	O 	0.35289	0.22234	0.02751	-0.284
Mof_C 	C 	0.39904	0.26426	0.90884	0.485
Mof_C 	C 	0.43881	0.31357	0.90331	-0.146
Mof_C 	C 	0.43642	0.34173	0.87105	0.091
Mof_H 	H 	0.4105	0.3294	0.8515	0.039
Mof_C 	C 	0.47239	0.38834	0.86752	-0.154
Mof_C 	C 	0.51076	0.4055	0.89504	0.02
Mof_H 	H 	0.5352	0.4372	0.892	0.048
Mof_C 	C 	0.51455	0.37714	0.92748	0.002
Mof_C 	C 	0.4773	0.33104	0.93132	0.016
Mof_H 	H 	0.4783	0.3113	0.9535	0.052
Mof_C 	C 	0.47092	0.42071	0.83398	0.51
Mof_C 	C 	0.55693	0.39538	0.95433	-0.043
Mof_H 	H 	0.5606	0.3739	0.9723	0.061
Mof_C 	C 	0.59002	0.43938	0.95507	-0.049
Mof_H 	H 	0.5828	0.4601	0.9397	0.06
Mof_C 	C 	0.63643	0.46213	0.97564	0.013
Mof_C 	C 	0.66604	0.50985	0.96823	0.004
Mof_H 	H 	0.6549	0.5265	0.9512	0.056
Mof_C 	C 	0.71101	0.53379	0.98484	-0.138
Mof_C 	C 	0.72739	0.50974	0.00995	0.071
Mof_H 	H 	0.758	0.526	0.0223	0.049
Mof_C 	C 	0.69899	0.46205	0.01696	-0.12
Mof_C 	C 	0.65364	0.43821	0.00024	-0.001
Mof_H 	H 	0.6342	0.4054	0.0056	0.055
Mof_C 	C 	0.74178	0.58493	0.97398	0.485
Mof_C 	C 	0.7164	0.4347	0.0426	0.444
Mof_Co	Co	0.343	0.1883	0.9694	-0.438
Mof_Fe	Fe	0.00837	0.51783	0.30343	2.21
Mof_O 	O 	0.06238	0.57934	0.2789	-0.507
Mof_O 	O 	0.03877	0.57857	0.21032	-0.516
Mof_O 	O 	0.10358	0.73705	0.14148	-0.533
Mof_O 	O 	0.17067	0.79596	0.16808	-0.562
Mof_O 	O 	0.39332	0.93562	0.27973	-0.513
Mof_O 	O 	0.44763	0.93998	0.32634	-0.524
Mof_O 	O 	0.42123	0.79098	0.39533	-0.445
Mof_H 	H 	0.42797	0.77233	0.40793	0.197
Mof_O 	O 	0.35926	0.72537	0.37613	-0.394
Mof_O 	O 	0.01956	0.55567	0.36084	-0.289
Mof_C 	C 	0.06571	0.59759	0.24217	0.486
Mof_C 	C 	0.10548	0.6469	0.23664	-0.148
Mof_C 	C 	0.10309	0.67506	0.20438	0.091
Mof_H 	H 	0.07717	0.66273	0.18483	0.038
Mof_C 	C 	0.13906	0.72167	0.20085	-0.155
Mof_C 	C 	0.17743	0.73883	0.22837	0.02
Mof_H 	H 	0.20187	0.77053	0.22533	0.048
Mof_C 	C 	0.18122	0.71047	0.26081	0.001
Mof_C 	C 	0.14397	0.66437	0.26465	0.016
Mof_H 	H 	0.14497	0.64463	0.28683	0.051
Mof_C 	C 	0.13759	0.75404	0.16731	0.51
Mof_C 	C 	0.2236	0.72871	0.28766	-0.042
Mof_H 	H 	0.22727	0.70723	0.30563	0.061
Mof_C 	C 	0.25669	0.77271	0.2884	-0.05
Mof_H 	H 	0.24947	0.79343	0.27303	0.061
Mof_C 	C 	0.3031	0.79546	0.30897	0.014
Mof_C 	C 	0.33271	0.84318	0.30156	0.003
Mof_H 	H 	0.32157	0.85983	0.28453	0.057
Mof_C 	C 	0.37768	0.86712	0.31817	-0.136
Mof_C 	C 	0.39406	0.84307	0.34328	0.07
Mof_H 	H 	0.42467	0.85933	0.35563	0.05
Mof_C 	C 	0.36566	0.79538	0.35029	-0.119
Mof_C 	C 	0.32031	0.77154	0.33357	-0.001
Mof_H 	H 	0.30087	0.73873	0.33893	0.055
Mof_C 	C 	0.40845	0.91826	0.30731	0.485
Mof_C 	C 	0.38307	0.76803	0.37593	0.443
Mof_Co	Co	0.00967	0.52163	0.30273	-0.443
Mof_Fe	Fe	0.67503	0.85117	0.63677	2.207
Mof_O 	O 	0.72904	0.91268	0.61224	-0.502
Mof_O 	O 	0.70543	0.91191	0.54366	-0.508
Mof_O 	O 	0.77024	0.07039	0.47482	-0.533
Mof_O 	O 	0.83733	0.1293	0.50142	-0.561
Mof_O 	O 	0.05998	0.26896	0.61307	-0.523
Mof_O 	O 	0.11429	0.27332	0.65968	-0.531
Mof_O 	O 	0.08789	0.12432	0.72867	-0.448
Mof_H 	H 	0.09463	0.10567	0.74127	0.197
Mof_O 	O 	0.02592	0.05871	0.70947	-0.4
Mof_O 	O 	0.68622	0.88901	0.69418	-0.282
Mof_C 	C 	0.73237	0.93093	0.57551	0.478
Mof_C 	C 	0.77214	0.98024	0.56998	-0.122
Mof_C 	C 	0.76975	0.0084	0.53772	0.047
Mof_H 	H 	0.74383	0.99607	0.51817	0.061
Mof_C 	C 	0.80572	0.05501	0.53419	-0.139
Mof_C 	C 	0.84409	0.07217	0.56171	0.011
Mof_H 	H 	0.86853	0.10387	0.55867	0.051
Mof_C 	C 	0.84788	0.04381	0.59415	-0
Mof_C 	C 	0.81063	0.99771	0.59799	0.017
Mof_H 	H 	0.81163	0.97797	0.62017	0.054
Mof_C 	C 	0.80425	0.08738	0.50065	0.503
Mof_C 	C 	0.89026	0.06205	0.621	-0.05
Mof_H 	H 	0.89393	0.04057	0.63897	0.062
Mof_C 	C 	0.92335	0.10605	0.62174	-0.036
Mof_H 	H 	0.91613	0.12677	0.60637	0.057
Mof_C 	C 	0.96976	0.1288	0.64231	-0.009
Mof_C 	C 	0.99937	0.17652	0.6349	0.038
Mof_H 	H 	0.98823	0.19317	0.61787	0.048
Mof_C 	C 	0.04434	0.20046	0.65151	-0.167
Mof_C 	C 	0.06072	0.17641	0.67662	0.093
Mof_H 	H 	0.09133	0.19267	0.68897	0.041
Mof_C 	C 	0.03232	0.12872	0.68363	-0.149
Mof_C 	C 	0.98697	0.10488	0.66691	0.033
Mof_H 	H 	0.96753	0.07207	0.67227	0.045
Mof_C 	C 	0.07511	0.2516	0.64065	0.494
Mof_C 	C 	0.04973	0.10137	0.70927	0.452
Mof_Co	Co	0.67633	0.85497	0.63607	-0.438
Mof_Fe	Fe	0.8155	0.1572	0.9701	2.206
Mof_O 	O 	0.75399	0.1497	0.94557	-0.505
Mof_O 	O 	0.75476	0.12686	0.87699	-0.512
Mof_O 	O 	0.59628	0.03319	0.80815	-0.535
Mof_O 	O 	0.53737	0.04137	0.83475	-0.566
Mof_O 	O 	0.39771	0.12436	0.9464	-0.519
Mof_O 	O 	0.39335	0.17431	0.99301	-0.528
Mof_O 	O 	0.54235	0.29691	0.062	-0.445
Mof_H 	H 	0.561	0.3223	0.0746	0.197
Mof_O 	O 	0.60796	0.30055	0.0428	-0.394
Mof_O 	O 	0.77766	0.13055	0.02751	-0.285
Mof_C 	C 	0.73574	0.13478	0.90884	0.485
Mof_C 	C 	0.68643	0.12524	0.90331	-0.147
Mof_C 	C 	0.65827	0.09469	0.87105	0.091
Mof_H 	H 	0.6706	0.0811	0.8515	0.038
Mof_C 	C 	0.61166	0.08405	0.86752	-0.156
Mof_C 	C 	0.5945	0.10526	0.89504	0.02
Mof_H 	H 	0.5628	0.098	0.892	0.047
Mof_C 	C 	0.62286	0.13741	0.92748	0.001
Mof_C 	C 	0.66896	0.14626	0.93132	0.016
Mof_H 	H 	0.6887	0.167	0.9535	0.052
Mof_C 	C 	0.57929	0.05021	0.83398	0.51
Mof_C 	C 	0.60462	0.16155	0.95433	-0.043
Mof_H 	H 	0.6261	0.1867	0.9723	0.061
Mof_C 	C 	0.56062	0.15064	0.95507	-0.049
Mof_H 	H 	0.5399	0.1227	0.9397	0.059
Mof_C 	C 	0.53787	0.1743	0.97564	0.012
Mof_C 	C 	0.49015	0.15619	0.96823	0.004
Mof_H 	H 	0.4735	0.1284	0.9512	0.055
Mof_C 	C 	0.46621	0.17722	0.98484	-0.138
Mof_C 	C 	0.49026	0.21765	0.00995	0.071
Mof_H 	H 	0.474	0.232	0.0223	0.049
Mof_C 	C 	0.53795	0.23694	0.01696	-0.12
Mof_C 	C 	0.56179	0.21543	0.00024	-0
Mof_H 	H 	0.5946	0.2288	0.0056	0.054
Mof_C 	C 	0.41507	0.15685	0.97398	0.485
Mof_C 	C 	0.5653	0.2817	0.0426	0.444
Mof_Co	Co	0.8117	0.1547	0.9694	-0.437
Mof_Fe	Fe	0.48217	0.49053	0.30343	2.207
Mof_O 	O 	0.42066	0.48303	0.2789	-0.505
Mof_O 	O 	0.42143	0.46019	0.21032	-0.511
Mof_O 	O 	0.26295	0.36652	0.14148	-0.532
Mof_O 	O 	0.20404	0.3747	0.16808	-0.562
Mof_O 	O 	0.06438	0.45769	0.27973	-0.519
Mof_O 	O 	0.06002	0.50764	0.32634	-0.53
Mof_O 	O 	0.20902	0.63024	0.39533	-0.446
Mof_H 	H 	0.22767	0.65563	0.40793	0.197
Mof_O 	O 	0.27463	0.63388	0.37613	-0.394
Mof_O 	O 	0.44433	0.46388	0.36084	-0.284
Mof_C 	C 	0.40241	0.46811	0.24217	0.485
Mof_C 	C 	0.3531	0.45857	0.23664	-0.146
Mof_C 	C 	0.32494	0.42802	0.20438	0.091
Mof_H 	H 	0.33727	0.41443	0.18483	0.039
Mof_C 	C 	0.27833	0.41738	0.20085	-0.154
Mof_C 	C 	0.26117	0.43859	0.22837	0.02
Mof_H 	H 	0.22947	0.43133	0.22533	0.048
Mof_C 	C 	0.28953	0.47074	0.26081	0.002
Mof_C 	C 	0.33563	0.47959	0.26465	0.016
Mof_H 	H 	0.35537	0.50033	0.28683	0.052
Mof_C 	C 	0.24596	0.38354	0.16731	0.51
Mof_C 	C 	0.27129	0.49488	0.28766	-0.043
Mof_H 	H 	0.29277	0.52003	0.30563	0.062
Mof_C 	C 	0.22729	0.48397	0.2884	-0.049
Mof_H 	H 	0.20657	0.45603	0.27303	0.06
Mof_C 	C 	0.20454	0.50763	0.30897	0.013
Mof_C 	C 	0.15682	0.48952	0.30156	0.004
Mof_H 	H 	0.14017	0.46173	0.28453	0.055
Mof_C 	C 	0.13288	0.51055	0.31817	-0.138
Mof_C 	C 	0.15693	0.55098	0.34328	0.071
Mof_H 	H 	0.14067	0.56533	0.35563	0.048
Mof_C 	C 	0.20462	0.57027	0.35029	-0.12
Mof_C 	C 	0.22846	0.54876	0.33357	-0.001
Mof_H 	H 	0.26127	0.56213	0.33893	0.055
Mof_C 	C 	0.08174	0.49018	0.30731	0.486
Mof_C 	C 	0.23197	0.61503	0.37593	0.444
Mof_Co	Co	0.47837	0.48803	0.30273	-0.437
Mof_Fe	Fe	0.14883	0.82387	0.63677	2.207
Mof_O 	O 	0.08732	0.81637	0.61224	-0.507
Mof_O 	O 	0.08809	0.79353	0.54366	-0.514
Mof_O 	O 	0.92961	0.69986	0.47482	-0.531
Mof_O 	O 	0.8707	0.70804	0.50142	-0.563
Mof_O 	O 	0.73104	0.79103	0.61307	-0.518
Mof_O 	O 	0.72668	0.84098	0.65968	-0.528
Mof_O 	O 	0.87568	0.96358	0.72867	-0.449
Mof_H 	H 	0.89433	0.98897	0.74127	0.212
Mof_O 	O 	0.94129	0.96722	0.70947	-0.382
Mof_O 	O 	0.11099	0.79722	0.69418	-0.285
Mof_C 	C 	0.06907	0.80145	0.57551	0.492
Mof_C 	C 	0.01976	0.79191	0.56998	-0.168
Mof_C 	C 	0.9916	0.76136	0.53772	0.132
Mof_H 	H 	0.00393	0.74777	0.51817	0.018
Mof_C 	C 	0.94499	0.75072	0.53419	-0.167
Mof_C 	C 	0.92783	0.77193	0.56171	0.026
Mof_H 	H 	0.89613	0.76467	0.55867	0.047
Mof_C 	C 	0.95619	0.80408	0.59415	0.01
Mof_C 	C 	0.00229	0.81293	0.59799	0.011
Mof_H 	H 	0.02203	0.83367	0.62017	0.051
Mof_C 	C 	0.91262	0.71688	0.50065	0.516
Mof_C 	C 	0.93795	0.82822	0.621	-0.045
Mof_H 	H 	0.95943	0.85337	0.63897	0.066
Mof_C 	C 	0.89395	0.81731	0.62174	-0.047
Mof_H 	H 	0.87323	0.78937	0.60637	0.06
Mof_C 	C 	0.8712	0.84097	0.64231	0.014
Mof_C 	C 	0.82348	0.82286	0.6349	0.004
Mof_H 	H 	0.80683	0.79507	0.61787	0.056
Mof_C 	C 	0.79954	0.84389	0.65151	-0.137
Mof_C 	C 	0.82359	0.88432	0.67662	0.071
Mof_H 	H 	0.80733	0.89867	0.68897	0.05
Mof_C 	C 	0.87128	0.90361	0.68363	-0.118
Mof_C 	C 	0.89512	0.8821	0.66691	-0.001
Mof_H 	H 	0.92793	0.89547	0.67227	0.057
Mof_C 	C 	0.7484	0.82352	0.64065	0.485
Mof_C 	C 	0.89863	0.94837	0.70927	0.444
Mof_Co	Co	0.14503	0.82137	0.63607	-0.438
Mof_Fe	Fe	0.6583	0.8428	0.5299	2.207
Mof_O 	O 	0.60429	0.8503	0.55443	-0.505
Mof_O 	O 	0.6279	0.87314	0.62301	-0.511
Mof_O 	O 	0.56309	0.96681	0.69185	-0.526
Mof_O 	O 	0.496	0.95863	0.66525	-0.557
Mof_O 	O 	0.27335	0.87564	0.5536	-0.517
Mof_O 	O 	0.21904	0.82569	0.50699	-0.528
Mof_O 	O 	0.24544	0.70309	0.438	-0.445
Mof_H 	H 	0.2387	0.6777	0.4254	0.197
Mof_O 	O 	0.30741	0.69945	0.4572	-0.394
Mof_O 	O 	0.64711	0.86945	0.47249	-0.283
Mof_C 	C 	0.60096	0.86522	0.59116	0.485
Mof_C 	C 	0.56119	0.87476	0.59669	-0.145
Mof_C 	C 	0.56358	0.90531	0.62895	0.09
Mof_H 	H 	0.5895	0.9189	0.6485	0.041
Mof_C 	C 	0.52761	0.91595	0.63248	-0.152
Mof_C 	C 	0.48924	0.89474	0.60496	0.019
Mof_H 	H 	0.4648	0.902	0.608	0.049
Mof_C 	C 	0.48545	0.86259	0.57252	0.003
Mof_C 	C 	0.5227	0.85374	0.56868	0.015
Mof_H 	H 	0.5217	0.833	0.5465	0.052
Mof_C 	C 	0.52908	0.94979	0.66602	0.508
Mof_C 	C 	0.44307	0.83845	0.54567	-0.042
Mof_H 	H 	0.4394	0.8133	0.5277	0.062
Mof_C 	C 	0.40998	0.84936	0.54493	-0.049
Mof_H 	H 	0.4172	0.8773	0.5603	0.061
Mof_C 	C 	0.36357	0.8257	0.52436	0.014
Mof_C 	C 	0.33396	0.84381	0.53177	0.004
Mof_H 	H 	0.3451	0.8716	0.5488	0.057
Mof_C 	C 	0.28899	0.82278	0.51516	-0.137
Mof_C 	C 	0.27261	0.78235	0.49005	0.071
Mof_H 	H 	0.242	0.768	0.4777	0.049
Mof_C 	C 	0.30101	0.76306	0.48304	-0.12
Mof_C 	C 	0.34636	0.78457	0.49976	-0.001
Mof_H 	H 	0.3658	0.7712	0.4944	0.055
Mof_C 	C 	0.25822	0.84315	0.52602	0.485
Mof_C 	C 	0.2836	0.7183	0.4574	0.444
Mof_Co	Co	0.657	0.8453	0.5306	-0.438
Mof_Fe	Fe	0.32497	0.17613	0.86323	2.206
Mof_O 	O 	0.27096	0.18363	0.88776	-0.505
Mof_O 	O 	0.29457	0.20647	0.95634	-0.512
Mof_O 	O 	0.22976	0.30014	0.02518	-0.532
Mof_O 	O 	0.16267	0.29196	0.99858	-0.563
Mof_O 	O 	0.94002	0.20897	0.88693	-0.513
Mof_O 	O 	0.88571	0.15902	0.84032	-0.525
Mof_O 	O 	0.91211	0.03642	0.77133	-0.434
Mof_H 	H 	0.90537	0.01103	0.75873	0.181
Mof_O 	O 	0.97408	0.03278	0.79053	-0.383
Mof_O 	O 	0.31378	0.20278	0.80582	-0.284
Mof_C 	C 	0.26763	0.19855	0.92449	0.486
Mof_C 	C 	0.22786	0.20809	0.93002	-0.148
Mof_C 	C 	0.23025	0.23864	0.96228	0.092
Mof_H 	H 	0.25617	0.25223	0.98183	0.039
Mof_C 	C 	0.19428	0.24928	0.96581	-0.156
Mof_C 	C 	0.15591	0.22807	0.93829	0.023
Mof_H 	H 	0.13147	0.23533	0.94133	0.046
Mof_C 	C 	0.15212	0.19592	0.90585	-0.004
Mof_C 	C 	0.18937	0.18707	0.90201	0.019
Mof_H 	H 	0.18837	0.16633	0.87983	0.05
Mof_C 	C 	0.19575	0.28312	0.99935	0.51
Mof_C 	C 	0.10974	0.17178	0.879	-0.033
Mof_H 	H 	0.10607	0.14663	0.86103	0.057
Mof_C 	C 	0.07665	0.18269	0.87826	-0.066
Mof_H 	H 	0.08387	0.21063	0.89363	0.065
Mof_C 	C 	0.03024	0.15903	0.85769	0.037
Mof_C 	C 	0.00063	0.17714	0.8651	-0.031
Mof_H 	H 	0.01177	0.20493	0.88213	0.063
Mof_C 	C 	0.95566	0.15611	0.84849	-0.108
Mof_C 	C 	0.93928	0.11568	0.82338	0.047
Mof_H 	H 	0.90867	0.10133	0.81103	0.056
Mof_C 	C 	0.96768	0.09639	0.81637	-0.089
Mof_C 	C 	0.01303	0.1179	0.83309	-0.036
Mof_H 	H 	0.03247	0.10453	0.82773	0.063
Mof_C 	C 	0.92489	0.17648	0.85935	0.476
Mof_C 	C 	0.95027	0.05163	0.79073	0.428
Mof_Co	Co	0.32367	0.17863	0.86393	-0.437
Mof_Fe	Fe	0.99163	0.50947	0.19657	2.201
Mof_O 	O 	0.93762	0.51697	0.2211	-0.503
Mof_O 	O 	0.96123	0.53981	0.28968	-0.506
Mof_O 	O 	0.89642	0.63348	0.35852	-0.531
Mof_O 	O 	0.82933	0.6253	0.33192	-0.562
Mof_O 	O 	0.60668	0.54231	0.22027	-0.518
Mof_O 	O 	0.55237	0.49236	0.17366	-0.528
Mof_O 	O 	0.57877	0.36976	0.10467	-0.445
Mof_H 	H 	0.57203	0.34437	0.09207	0.197
Mof_O 	O 	0.64074	0.36612	0.12387	-0.394
Mof_O 	O 	0.98044	0.53612	0.13916	-0.278
Mof_C 	C 	0.93429	0.53189	0.25783	0.484
Mof_C 	C 	0.89452	0.54143	0.26336	-0.145
Mof_C 	C 	0.89691	0.57198	0.29562	0.09
Mof_H 	H 	0.92283	0.58557	0.31517	0.041
Mof_C 	C 	0.86094	0.58262	0.29915	-0.153
Mof_C 	C 	0.82257	0.56141	0.27163	0.019
Mof_H 	H 	0.79813	0.56867	0.27467	0.048
Mof_C 	C 	0.81878	0.52926	0.23919	0.003
Mof_C 	C 	0.85603	0.52041	0.23535	0.015
Mof_H 	H 	0.85503	0.49967	0.21317	0.052
Mof_C 	C 	0.86241	0.61646	0.33269	0.509
Mof_C 	C 	0.7764	0.50512	0.21234	-0.043
Mof_H 	H 	0.77273	0.47997	0.19437	0.062
Mof_C 	C 	0.74331	0.51603	0.2116	-0.049
Mof_H 	H 	0.75053	0.54397	0.22697	0.06
Mof_C 	C 	0.6969	0.49237	0.19103	0.013
Mof_C 	C 	0.66729	0.51048	0.19844	0.004
Mof_H 	H 	0.67843	0.53827	0.21547	0.056
Mof_C 	C 	0.62232	0.48945	0.18183	-0.138
Mof_C 	C 	0.60594	0.44902	0.15672	0.071
Mof_H 	H 	0.57533	0.43467	0.14437	0.049
Mof_C 	C 	0.63434	0.42973	0.14971	-0.12
Mof_C 	C 	0.67969	0.45124	0.16643	-0.001
Mof_H 	H 	0.69913	0.43787	0.16107	0.055
Mof_C 	C 	0.59155	0.50982	0.19269	0.485
Mof_C 	C 	0.61693	0.38497	0.12407	0.444
Mof_Co	Co	0.99033	0.51197	0.19727	-0.428
Mof_Fe	Fe	0.1845	0.3417	0.5299	2.207
Mof_O 	O 	0.24601	0.39571	0.55443	-0.505
Mof_O 	O 	0.24524	0.3721	0.62301	-0.511
Mof_O 	O 	0.40372	0.43691	0.69185	-0.532
Mof_O 	O 	0.46263	0.504	0.66525	-0.562
Mof_O 	O 	0.60229	0.72665	0.5536	-0.518
Mof_O 	O 	0.60665	0.78096	0.50699	-0.528
Mof_O 	O 	0.45765	0.75456	0.438	-0.445
Mof_H 	H 	0.439	0.7613	0.4254	0.197
Mof_O 	O 	0.39204	0.69259	0.4572	-0.394
Mof_O 	O 	0.22234	0.35289	0.47249	-0.284
Mof_C 	C 	0.26426	0.39904	0.59116	0.485
Mof_C 	C 	0.31357	0.43881	0.59669	-0.146
Mof_C 	C 	0.34173	0.43642	0.62895	0.091
Mof_H 	H 	0.3294	0.4105	0.6485	0.039
Mof_C 	C 	0.38834	0.47239	0.63248	-0.154
Mof_C 	C 	0.4055	0.51076	0.60496	0.02
Mof_H 	H 	0.4372	0.5352	0.608	0.048
Mof_C 	C 	0.37714	0.51455	0.57252	0.002
Mof_C 	C 	0.33104	0.4773	0.56868	0.016
Mof_H 	H 	0.3113	0.4783	0.5465	0.052
Mof_C 	C 	0.42071	0.47092	0.66602	0.51
Mof_C 	C 	0.39538	0.55693	0.54567	-0.043
Mof_H 	H 	0.3739	0.5606	0.5277	0.061
Mof_C 	C 	0.43938	0.59002	0.54493	-0.049
Mof_H 	H 	0.4601	0.5828	0.5603	0.06
Mof_C 	C 	0.46213	0.63643	0.52436	0.013
Mof_C 	C 	0.50985	0.66604	0.53177	0.004
Mof_H 	H 	0.5265	0.6549	0.5488	0.056
Mof_C 	C 	0.53379	0.71101	0.51516	-0.138
Mof_C 	C 	0.50974	0.72739	0.49005	0.071
Mof_H 	H 	0.526	0.758	0.4777	0.049
Mof_C 	C 	0.46205	0.69899	0.48304	-0.12
Mof_C 	C 	0.43821	0.65364	0.49976	-0.001
Mof_H 	H 	0.4054	0.6342	0.4944	0.055
Mof_C 	C 	0.58493	0.74178	0.52602	0.485
Mof_C 	C 	0.4347	0.7164	0.4574	0.444
Mof_Co	Co	0.1883	0.343	0.5306	-0.438
Mof_Fe	Fe	0.85117	0.67503	0.86323	2.207
Mof_O 	O 	0.91268	0.72904	0.88776	-0.502
Mof_O 	O 	0.91191	0.70543	0.95634	-0.508
Mof_O 	O 	0.07039	0.77024	0.02518	-0.533
Mof_O 	O 	0.1293	0.83733	0.99858	-0.561
Mof_O 	O 	0.26896	0.05998	0.88693	-0.523
Mof_O 	O 	0.27332	0.11429	0.84032	-0.531
Mof_O 	O 	0.12432	0.08789	0.77133	-0.448
Mof_H 	H 	0.10567	0.09463	0.75873	0.197
Mof_O 	O 	0.05871	0.02592	0.79053	-0.4
Mof_O 	O 	0.88901	0.68622	0.80582	-0.282
Mof_C 	C 	0.93093	0.73237	0.92449	0.478
Mof_C 	C 	0.98024	0.77214	0.93002	-0.123
Mof_C 	C 	0.0084	0.76975	0.96228	0.048
Mof_H 	H 	0.99607	0.74383	0.98183	0.061
Mof_C 	C 	0.05501	0.80572	0.96581	-0.139
Mof_C 	C 	0.07217	0.84409	0.93829	0.011
Mof_H 	H 	0.10387	0.86853	0.94133	0.051
Mof_C 	C 	0.04381	0.84788	0.90585	-0
Mof_C 	C 	0.99771	0.81063	0.90201	0.017
Mof_H 	H 	0.97797	0.81163	0.87983	0.054
Mof_C 	C 	0.08738	0.80425	0.99935	0.503
Mof_C 	C 	0.06205	0.89026	0.879	-0.05
Mof_H 	H 	0.04057	0.89393	0.86103	0.062
Mof_C 	C 	0.10605	0.92335	0.87826	-0.036
Mof_H 	H 	0.12677	0.91613	0.89363	0.057
Mof_C 	C 	0.1288	0.96976	0.85769	-0.009
Mof_C 	C 	0.17652	0.99937	0.8651	0.038
Mof_H 	H 	0.19317	0.98823	0.88213	0.048
Mof_C 	C 	0.20046	0.04434	0.84849	-0.167
Mof_C 	C 	0.17641	0.06072	0.82338	0.093
Mof_H 	H 	0.19267	0.09133	0.81103	0.041
Mof_C 	C 	0.12872	0.03232	0.81637	-0.149
Mof_C 	C 	0.10488	0.98697	0.83309	0.033
Mof_H 	H 	0.07207	0.96753	0.82773	0.045
Mof_C 	C 	0.2516	0.07511	0.85935	0.494
Mof_C 	C 	0.10137	0.04973	0.79073	0.452
Mof_Co	Co	0.85497	0.67633	0.86393	-0.438
Mof_Fe	Fe	0.51783	0.00837	0.19657	2.21
Mof_O 	O 	0.57934	0.06238	0.2211	-0.507
Mof_O 	O 	0.57857	0.03877	0.28968	-0.516
Mof_O 	O 	0.73705	0.10358	0.35852	-0.533
Mof_O 	O 	0.79596	0.17067	0.33192	-0.562
Mof_O 	O 	0.93562	0.39332	0.22027	-0.513
Mof_O 	O 	0.93998	0.44763	0.17366	-0.524
Mof_O 	O 	0.79098	0.42123	0.10467	-0.445
Mof_H 	H 	0.77233	0.42797	0.09207	0.197
Mof_O 	O 	0.72537	0.35926	0.12387	-0.394
Mof_O 	O 	0.55567	0.01956	0.13916	-0.289
Mof_C 	C 	0.59759	0.06571	0.25783	0.486
Mof_C 	C 	0.6469	0.10548	0.26336	-0.148
Mof_C 	C 	0.67506	0.10309	0.29562	0.091
Mof_H 	H 	0.66273	0.07717	0.31517	0.038
Mof_C 	C 	0.72167	0.13906	0.29915	-0.155
Mof_C 	C 	0.73883	0.17743	0.27163	0.02
Mof_H 	H 	0.77053	0.20187	0.27467	0.048
Mof_C 	C 	0.71047	0.18122	0.23919	0.001
Mof_C 	C 	0.66437	0.14397	0.23535	0.016
Mof_H 	H 	0.64463	0.14497	0.21317	0.051
Mof_C 	C 	0.75404	0.13759	0.33269	0.51
Mof_C 	C 	0.72871	0.2236	0.21234	-0.042
Mof_H 	H 	0.70723	0.22727	0.19437	0.061
Mof_C 	C 	0.77271	0.25669	0.2116	-0.05
Mof_H 	H 	0.79343	0.24947	0.22697	0.061
Mof_C 	C 	0.79546	0.3031	0.19103	0.014
Mof_C 	C 	0.84318	0.33271	0.19844	0.003
Mof_H 	H 	0.85983	0.32157	0.21547	0.057
Mof_C 	C 	0.86712	0.37768	0.18183	-0.136
Mof_C 	C 	0.84307	0.39406	0.15672	0.07
Mof_H 	H 	0.85933	0.42467	0.14437	0.05
Mof_C 	C 	0.79538	0.36566	0.14971	-0.119
Mof_C 	C 	0.77154	0.32031	0.16643	-0.001
Mof_H 	H 	0.73873	0.30087	0.16107	0.055
Mof_C 	C 	0.91826	0.40845	0.19269	0.485
Mof_C 	C 	0.76803	0.38307	0.12407	0.443
Mof_Co	Co	0.52163	0.00967	0.19727	-0.443
Mof_Fe	Fe	0.1572	0.8155	0.5299	2.206
Mof_O 	O 	0.1497	0.75399	0.55443	-0.505
Mof_O 	O 	0.12686	0.75476	0.62301	-0.512
Mof_O 	O 	0.03319	0.59628	0.69185	-0.535
Mof_O 	O 	0.04137	0.53737	0.66525	-0.566
Mof_O 	O 	0.12436	0.39771	0.5536	-0.519
Mof_O 	O 	0.17431	0.39335	0.50699	-0.528
Mof_O 	O 	0.29691	0.54235	0.438	-0.445
Mof_H 	H 	0.3223	0.561	0.4254	0.197
Mof_O 	O 	0.30055	0.60796	0.4572	-0.394
Mof_O 	O 	0.13055	0.77766	0.47249	-0.285
Mof_C 	C 	0.13478	0.73574	0.59116	0.485
Mof_C 	C 	0.12524	0.68643	0.59669	-0.147
Mof_C 	C 	0.09469	0.65827	0.62895	0.091
Mof_H 	H 	0.0811	0.6706	0.6485	0.038
Mof_C 	C 	0.08405	0.61166	0.63248	-0.156
Mof_C 	C 	0.10526	0.5945	0.60496	0.02
Mof_H 	H 	0.098	0.5628	0.608	0.047
Mof_C 	C 	0.13741	0.62286	0.57252	0.001
Mof_C 	C 	0.14626	0.66896	0.56868	0.016
Mof_H 	H 	0.167	0.6887	0.5465	0.052
Mof_C 	C 	0.05021	0.57929	0.66602	0.51
Mof_C 	C 	0.16155	0.60462	0.54567	-0.043
Mof_H 	H 	0.1867	0.6261	0.5277	0.061
Mof_C 	C 	0.15064	0.56062	0.54493	-0.049
Mof_H 	H 	0.1227	0.5399	0.5603	0.059
Mof_C 	C 	0.1743	0.53787	0.52436	0.013
Mof_C 	C 	0.15619	0.49015	0.53177	0.004
Mof_H 	H 	0.1284	0.4735	0.5488	0.055
Mof_C 	C 	0.17722	0.46621	0.51516	-0.138
Mof_C 	C 	0.21765	0.49026	0.49005	0.071
Mof_H 	H 	0.232	0.474	0.4777	0.049
Mof_C 	C 	0.23694	0.53795	0.48304	-0.12
Mof_C 	C 	0.21543	0.56179	0.49976	-0.001
Mof_H 	H 	0.2288	0.5946	0.4944	0.054
Mof_C 	C 	0.15685	0.41507	0.52602	0.485
Mof_C 	C 	0.2817	0.5653	0.4574	0.444
Mof_Co	Co	0.1547	0.8117	0.5306	-0.437
Mof_Fe	Fe	0.82387	0.14883	0.86323	2.207
Mof_O 	O 	0.81637	0.08732	0.88776	-0.507
Mof_O 	O 	0.79353	0.08809	0.95634	-0.514
Mof_O 	O 	0.69986	0.92961	0.02518	-0.531
Mof_O 	O 	0.70804	0.8707	0.99858	-0.563
Mof_O 	O 	0.79103	0.73104	0.88693	-0.518
Mof_O 	O 	0.84098	0.72668	0.84032	-0.528
Mof_O 	O 	0.96358	0.87568	0.77133	-0.449
Mof_H 	H 	0.98897	0.89433	0.75873	0.212
Mof_O 	O 	0.96722	0.94129	0.79053	-0.382
Mof_O 	O 	0.79722	0.11099	0.80582	-0.285
Mof_C 	C 	0.80145	0.06907	0.92449	0.492
Mof_C 	C 	0.79191	0.01976	0.93002	-0.168
Mof_C 	C 	0.76136	0.9916	0.96228	0.132
Mof_H 	H 	0.74777	0.00393	0.98183	0.018
Mof_C 	C 	0.75072	0.94499	0.96581	-0.167
Mof_C 	C 	0.77193	0.92783	0.93829	0.026
Mof_H 	H 	0.76467	0.89613	0.94133	0.047
Mof_C 	C 	0.80408	0.95619	0.90585	0.01
Mof_C 	C 	0.81293	0.00229	0.90201	0.011
Mof_H 	H 	0.83367	0.02203	0.87983	0.051
Mof_C 	C 	0.71688	0.91262	0.99935	0.516
Mof_C 	C 	0.82822	0.93795	0.879	-0.045
Mof_H 	H 	0.85337	0.95943	0.86103	0.066
Mof_C 	C 	0.81731	0.89395	0.87826	-0.047
Mof_H 	H 	0.78937	0.87323	0.89363	0.06
Mof_C 	C 	0.84097	0.8712	0.85769	0.014
Mof_C 	C 	0.82286	0.82348	0.8651	0.004
Mof_H 	H 	0.79507	0.80683	0.88213	0.056
Mof_C 	C 	0.84389	0.79954	0.84849	-0.137
Mof_C 	C 	0.88432	0.82359	0.82338	0.071
Mof_H 	H 	0.89867	0.80733	0.81103	0.05
Mof_C 	C 	0.90361	0.87128	0.81637	-0.118
Mof_C 	C 	0.8821	0.89512	0.83309	-0.001
Mof_H 	H 	0.89547	0.92793	0.82773	0.057
Mof_C 	C 	0.82352	0.7484	0.85935	0.485
Mof_C 	C 	0.94837	0.89863	0.79073	0.444
Mof_Co	Co	0.82137	0.14503	0.86393	-0.438
Mof_Fe	Fe	0.49053	0.48217	0.19657	2.207
Mof_O 	O 	0.48303	0.42066	0.2211	-0.505
Mof_O 	O 	0.46019	0.42143	0.28968	-0.511
Mof_O 	O 	0.36652	0.26295	0.35852	-0.532
Mof_O 	O 	0.3747	0.20404	0.33192	-0.562
Mof_O 	O 	0.45769	0.06438	0.22027	-0.519
Mof_O 	O 	0.50764	0.06002	0.17366	-0.53
Mof_O 	O 	0.63024	0.20902	0.10467	-0.446
Mof_H 	H 	0.65563	0.22767	0.09207	0.197
Mof_O 	O 	0.63388	0.27463	0.12387	-0.394
Mof_O 	O 	0.46388	0.44433	0.13916	-0.284
Mof_C 	C 	0.46811	0.40241	0.25783	0.485
Mof_C 	C 	0.45857	0.3531	0.26336	-0.146
Mof_C 	C 	0.42802	0.32494	0.29562	0.091
Mof_H 	H 	0.41443	0.33727	0.31517	0.039
Mof_C 	C 	0.41738	0.27833	0.29915	-0.154
Mof_C 	C 	0.43859	0.26117	0.27163	0.02
Mof_H 	H 	0.43133	0.22947	0.27467	0.048
Mof_C 	C 	0.47074	0.28953	0.23919	0.002
Mof_C 	C 	0.47959	0.33563	0.23535	0.016
Mof_H 	H 	0.50033	0.35537	0.21317	0.052
Mof_C 	C 	0.38354	0.24596	0.33269	0.51
Mof_C 	C 	0.49488	0.27129	0.21234	-0.043
Mof_H 	H 	0.52003	0.29277	0.19437	0.062
Mof_C 	C 	0.48397	0.22729	0.2116	-0.049
Mof_H 	H 	0.45603	0.20657	0.22697	0.06
Mof_C 	C 	0.50763	0.20454	0.19103	0.013
Mof_C 	C 	0.48952	0.15682	0.19844	0.004
Mof_H 	H 	0.46173	0.14017	0.21547	0.055
Mof_C 	C 	0.51055	0.13288	0.18183	-0.138
Mof_C 	C 	0.55098	0.15693	0.15672	0.071
Mof_H 	H 	0.56533	0.14067	0.14437	0.048
Mof_C 	C 	0.57027	0.20462	0.14971	-0.12
Mof_C 	C 	0.54876	0.22846	0.16643	-0.001
Mof_H 	H 	0.56213	0.26127	0.16107	0.055
Mof_C 	C 	0.49018	0.08174	0.19269	0.486
Mof_C 	C 	0.61503	0.23197	0.12407	0.444
Mof_Co	Co	0.48803	0.47837	0.19727	-0.437
Mof_Fe	Fe	0.23932	0.33333	0.08333	2.175
Mof_O 	O 	0.18106	0.33333	0.08333	-0.984
Mof_O 	O 	0.30253	0.33333	0.08333	-0.28
Mof_Co	Co	0.24102	0.33333	0.08333	-0.434
Mof_Fe	Fe	0.66667	0.90598	0.08333	2.175
Mof_O 	O 	0.66667	0.84772	0.08333	-0.985
Mof_O 	O 	0.66667	0.96919	0.08333	-0.276
Mof_Co	Co	0.66667	0.90768	0.08333	-0.434
Mof_Fe	Fe	0.33333	0.23932	0.41667	2.175
Mof_O 	O 	0.33333	0.18106	0.41667	-0.984
Mof_O 	O 	0.33333	0.30253	0.41667	-0.28
Mof_Co	Co	0.33333	0.24102	0.41667	-0.434
Mof_Fe	Fe	0.09402	0.76068	0.08333	2.175
Mof_O 	O 	0.15228	0.81894	0.08333	-0.985
Mof_O 	O 	0.03081	0.69747	0.08333	-0.284
Mof_Co	Co	0.09232	0.75898	0.08333	-0.434
Mof_Fe	Fe	0.42735	0.42735	0.75	2.175
Mof_O 	O 	0.48561	0.48561	0.75	-0.985
Mof_O 	O 	0.36414	0.36414	0.75	-0.28
Mof_Co	Co	0.42565	0.42565	0.75	-0.434
Mof_Fe	Fe	4.19157e-17	0.57265	0.75	2.178
Mof_O 	O 	-2.17947e-17	0.51439	0.75	-0.991
Mof_O 	O 	-2.17947e-17	0.63586	0.75	-0.285
Mof_Co	Co	4.19157e-17	0.57435	0.75	-0.439
Mof_Fe	Fe	0.90598	0.66667	0.41667	2.175
Mof_O 	O 	0.84772	0.66667	0.41667	-0.985
Mof_O 	O 	0.96919	0.66667	0.41667	-0.276
Mof_Co	Co	0.90768	0.66667	0.41667	-0.434
Mof_Fe	Fe	0.57265	0	0.75	2.178
Mof_O 	O 	0.51439	0	0.75	-0.991
Mof_O 	O 	0.63586	0	0.75	-0.285
Mof_Co	Co	0.57435	0	0.75	-0.439
Mof_Fe	Fe	0.76068	0.09402	0.41667	2.175
Mof_O 	O 	0.81894	0.15228	0.41667	-0.985
Mof_O 	O 	0.69747	0.03081	0.41667	-0.284
Mof_Co	Co	0.75898	0.09232	0.41667	-0.434
Mof_Fe	Fe	0.76068	0.66667	0.91667	2.175
Mof_O 	O 	0.81894	0.66667	0.91667	-0.984
Mof_O 	O 	0.69747	0.66667	0.91667	-0.28
Mof_Co	Co	0.75898	0.66667	0.91667	-0.434
Mof_Fe	Fe	0.42735	0	0.25	2.178
Mof_O 	O 	0.48561	0	0.25	-0.991
Mof_O 	O 	0.36414	0	0.25	-0.285
Mof_Co	Co	0.42565	0	0.25	-0.439
Mof_Fe	Fe	0.09402	0.33333	0.58333	2.175
Mof_O 	O 	0.15228	0.33333	0.58333	-0.985
Mof_O 	O 	0.03081	0.33333	0.58333	-0.284
Mof_Co	Co	0.09232	0.33333	0.58333	-0.434
Mof_Fe	Fe	0.33333	0.09402	0.91667	2.175
Mof_O 	O 	0.33333	0.15228	0.91667	-0.985
Mof_O 	O 	0.33333	0.03081	0.91667	-0.284
Mof_Co	Co	0.33333	0.09232	0.91667	-0.434
Mof_Fe	Fe	-2.85017e-17	0.42735	0.25	2.178
Mof_O 	O 	3.35349e-18	0.48561	0.25	-0.991
Mof_O 	O 	-2.85017e-17	0.36414	0.25	-0.285
Mof_Co	Co	3.35349e-18	0.42565	0.25	-0.439
Mof_Fe	Fe	0.90598	0.23932	0.91667	2.175
Mof_O 	O 	0.84772	0.18106	0.91667	-0.985
Mof_O 	O 	0.96919	0.30253	0.91667	-0.275
Mof_Co	Co	0.90768	0.24102	0.91667	-0.434
Mof_Fe	Fe	0.57265	0.57265	0.25	2.175
Mof_O 	O 	0.51439	0.51439	0.25	-0.985
Mof_O 	O 	0.63586	0.63586	0.25	-0.28
Mof_Co	Co	0.57435	0.57435	0.25	-0.434
Mof_Fe	Fe	0.66667	0.76068	0.58333	2.175
Mof_O 	O 	0.66667	0.81894	0.58333	-0.984
Mof_O 	O 	0.66667	0.69747	0.58333	-0.28
Mof_Co	Co	0.66667	0.75898	0.58333	-0.434
Mof_Fe	Fe	0.23932	0.90598	0.58333	2.175
Mof_O 	O 	0.18106	0.84772	0.58333	-0.985
Mof_O 	O 	0.30253	0.96919	0.58333	-0.275
Mof_Co	Co	0.24102	0.90768	0.58333	-0.434
Mof_Fe	Fe	0.33333	0.66667	0.91667	0.99
Mof_Fe	Fe	-0	0	0.25	0.959
Mof_Fe	Fe	0.66667	0.33333	0.58333	0.99
Mof_Fe	Fe	0.66667	0.33333	0.08333	0.99
Mof_Fe	Fe	-7.07327e-33	0	0.75	0.959
Mof_Fe	Fe	0.33333	0.66667	0.41667	0.99
_end
