# CIF file generated by openbabel 2.4.1, see http://openbabel.sf.net
data_I
_chemical_name_common 'image0'
_cell_length_a 17.9643
_cell_length_b 22.2539
_cell_length_c 20.8724
_cell_angle_alpha 90
_cell_angle_beta 108.065
_cell_angle_gamma 90
_space_group_name_H-M_alt 'P 1'
_space_group_name_Hall 'P 1'
loop_
    _symmetry_equiv_pos_as_xyz
    x,y,z
loop_
    _atom_site_label
    _atom_site_type_symbol
    _atom_site_fract_x
    _atom_site_fract_y
    _atom_site_fract_z
    _atom_site_occupancy
    Zn1     Zn   0.01851   0.68426   0.07701   1.000
    Zn2     Zn   0.93793   0.79084   0.11015   1.000
    O1      O    0.02770   0.58080   0.98620   1.000
    O2      O    0.92060   0.73700   0.02424   1.000
    O3      O    0.81480   0.88970   0.07380   1.000
    O4      O    0.09570   0.56050   0.10800   1.000
    O5      O    0.95970   0.70080   0.14850   1.000
    O6      O    0.84160   0.84990   0.18980   1.000
    O7      O    0.15650   0.62870   0.04410   1.000
    O8      O    0.05320   0.77430   0.11060   1.000
    O9      O    0.93630   0.91890   0.16390   1.000
    N1      N    0.98120   0.63070   0.98990   1.000
    N2      N    0.83720   0.83600   0.04910   1.000
    N3      N    0.05410   0.60350   0.13290   1.000
    N4      N    0.88490   0.79780   0.18890   1.000
    N5      N    0.13310   0.68250   0.06720   1.000
    N6      N    0.98510   0.87780   0.14290   1.000
    N7      N    0.36770   0.28180   0.93380   1.000
    B1      B    0.10530   0.57460   0.04000   1.000
    B2      B    0.85200   0.90140   0.14750   1.000
    C1      C    0.91550   0.63080   0.94120   1.000
    H1      H    0.90670   0.59790   0.91070   1.000
    C2      C    0.85460   0.67520   0.92850   1.000
    C3      C    0.78680   0.66590   0.87290   1.000
    H2      H    0.78460   0.63110   0.84600   1.000
    C4      C    0.72300   0.70470   0.85530   1.000
    C5      C    0.72930   0.75530   0.89480   1.000
    H3      H    0.68760   0.78350   0.88270   1.000
    C6      C    0.79360   0.76760   0.95200   1.000
    C7      C    0.85820   0.72700   0.97050   1.000
    C8      C    0.78930   0.82130   0.99010   1.000
    H4      H    0.74770   0.84840   0.97030   1.000
    C9      C    0.64900   0.69090   0.79540   1.000
    C10     C    0.65700   0.63640   0.75450   1.000
    H5      H    0.70140   0.64220   0.73720   1.000
    H6      H    0.66600   0.60060   0.78310   1.000
    H7      H    0.60890   0.63130   0.71660   1.000
    C11     C    0.63190   0.74680   0.74770   1.000
    H8      H    0.62650   0.78260   0.77320   1.000
    H9      H    0.67530   0.75260   0.72910   1.000
    H10     H    0.58330   0.74030   0.71080   1.000
    C12     C    0.58070   0.68440   0.82370   1.000
    H11     H    0.57740   0.72030   0.84980   1.000
    H12     H    0.53190   0.67970   0.78650   1.000
    H13     H    0.58900   0.64900   0.85290   1.000
    C13     C    0.58010   0.73120   0.79080   1.000
    H14     H    0.56690   0.72890   0.83290   1.000
    H15     H    0.59350   0.77280   0.78340   1.000
    H16     H    0.53500   0.71820   0.75320   1.000
    C14     C    0.67140   0.69350   0.73000   1.000
    H17     H    0.71620   0.66710   0.73410   1.000
    H18     H    0.62680   0.68030   0.69200   1.000
    H19     H    0.68530   0.73490   0.72220   1.000
    C15     C    0.62300   0.62450   0.80180   1.000
    H20     H    0.66690   0.59730   0.80490   1.000
    H21     H    0.60700   0.62060   0.84240   1.000
    H22     H    0.57890   0.61420   0.76210   1.000
    C16     C    0.04690   0.58750   0.19100   1.000
    H23     H    0.06950   0.55020   0.20930   1.000
    C17     C    0.00670   0.62230   0.23080   1.000
    C18     C    0.01210   0.59800   0.29470   1.000
    H24     H    0.04090   0.56190   0.30880   1.000
    C19     C    0.97590   0.62550   0.33840   1.000
    C20     C    0.93380   0.67750   0.31490   1.000
    H25     H    0.90710   0.69610   0.34240   1.000
    C21     C    0.92860   0.70420   0.25250   1.000
    C22     C    0.96540   0.67600   0.20840   1.000
    C23     C    0.88660   0.76170   0.23730   1.000
    H26     H    0.85770   0.77340   0.26640   1.000
    C24     C    0.97970   0.59930   0.40810   1.000
    C25     C    0.99620   0.64940   0.46140   1.000
    H27     H    0.95590   0.68060   0.44690   1.000
    H28     H    0.99530   0.63260   0.50450   1.000
    H29     H    0.04780   0.66700   0.46660   1.000
    C26     C    0.89890   0.57180   0.40350   1.000
    H30     H    0.88650   0.53950   0.36990   1.000
    H31     H    0.90050   0.55540   0.44750   1.000
    H32     H    0.85850   0.60300   0.39020   1.000
    C27     C    0.04390   0.55080   0.43210   1.000
    H33     H    0.03430   0.51840   0.39870   1.000
    H34     H    0.09530   0.56880   0.43750   1.000
    H35     H    0.04290   0.53440   0.47540   1.000
    C28     C    0.18880   0.72210   0.08030   1.000
    H36     H    0.23730   0.71000   0.07510   1.000
    C29     C    0.18280   0.78410   0.10240   1.000
    C30     C    0.24830   0.82130   0.10840   1.000
    H37     H    0.29260   0.80400   0.09980   1.000
    C31     C    0.25180   0.88120   0.12600   1.000
    C32     C    0.18590   0.90420   0.14030   1.000
    H38     H    0.18670   0.94500   0.15390   1.000
    C33     C    0.11850   0.86950   0.13540   1.000
    C34     C    0.11560   0.80840   0.11540   1.000
    C35     C    0.05390   0.90010   0.15090   1.000
    H39     H    0.06340   0.93970   0.16830   1.000
    C36     C    0.32380   0.91970   0.12720   1.000
    C37     C    0.31480   0.98510   0.14260   1.000
    H40     H    0.26620   0.00090   0.11120   1.000
    H41     H    0.31300   0.98900   0.18890   1.000
    H42     H    0.35940   0.00800   0.13780   1.000
    C38     C    0.39820   0.89270   0.17430   1.000
    H43     H    0.40190   0.85040   0.16260   1.000
    H44     H    0.44370   0.91460   0.16980   1.000
    H45     H    0.39730   0.89570   0.22090   1.000
    C39     C    0.33220   0.91880   0.05340   1.000
    H46     H    0.33820   0.87730   0.04030   1.000
    H47     H    0.28520   0.93640   0.02140   1.000
    H48     H    0.37820   0.94230   0.05310   1.000
    C40     C    0.15010   0.51920   0.01910   1.000
    C41     C    0.22870   0.50640   0.05490   1.000
    H49     H    0.25450   0.53040   0.09290   1.000
    C42     C    0.27010   0.46010   0.03690   1.000
    H50     H    0.32300   0.45330   0.06300   1.000
    C43     C    0.23570   0.42330   0.98130   1.000
    C44     C    0.15760   0.43610   0.94440   1.000
    H51     H    0.13230   0.41250   0.90580   1.000
    C45     C    0.11620   0.48260   0.96300   1.000
    H52     H    0.06330   0.48960   0.93680   1.000
    C46     C    0.27960   0.37240   0.96300   1.000
    C47     C    0.36040   0.37510   0.97890   1.000
    H53     H    0.38610   0.41030   0.00070   1.000
    C48     C    0.40460   0.33090   0.96550   1.000
    H54     H    0.46000   0.33430   0.97800   1.000
    C49     C    0.28740   0.27620   0.91250   1.000
    H55     H    0.26300   0.24170   0.88790   1.000
    C50     C    0.24240   0.32200   0.92760   1.000
    H56     H    0.18690   0.31880   0.91400   1.000
    C51     C    0.80820   0.95790   0.16620   1.000
    C52     C    0.77900   0.00510   0.12010   1.000
    H57     H    0.78570   0.00250   0.07680   1.000
    C53     C    0.74070   0.05530   0.13470   1.000
    H58     H    0.72330   0.08620   0.10210   1.000
    C54     C    0.72780   0.06030   0.19750   1.000
    C55     C    0.75840   0.01520   0.24430   1.000
    H59     H    0.75190   0.01780   0.28770   1.000
    C56     C    0.79800   0.96700   0.22940   1.000
    H60     H    0.81950   0.93820   0.26380   1.000
    C57     C    0.68570   0.11800   0.20890   1.000
    C58     C    0.63740   0.15260   0.15720   1.000
    H61     H    0.62900   0.14140   0.11160   1.000
    C59     C    0.60140   0.20370   0.17210   1.000
    H62     H    0.56840   0.22730   0.13670   1.000
    N8      N    0.61370   0.22010   0.23880   1.000
    C60     C    0.66200   0.18560   0.29060   1.000
    H63     H    0.67040   0.19680   0.33620   1.000
    C61     C    0.69800   0.13450   0.27570   1.000
    H64     H    0.73100   0.11090   0.31110   1.000
    C62     C    0.67160   0.09910   0.22270   1.000
    C63     C    0.59390   0.10450   0.18300   1.000
    H65     H    0.57460   0.08110   0.14320   1.000
    C64     C    0.54440   0.14420   0.20150   1.000
    H66     H    0.49130   0.14790   0.17440   1.000
    N9      N    0.57260   0.17840   0.25970   1.000
    C65     C    0.65030   0.17300   0.29940   1.000
    H67     H    0.66960   0.19650   0.33910   1.000
    C66     C    0.69980   0.13340   0.28090   1.000
    H68     H    0.75290   0.12970   0.30800   1.000
    Zn3     Zn   0.98149   0.18426   0.42299   1.000
    Zn4     Zn   0.06207   0.29084   0.38985   1.000
    O10     O    0.97230   0.08080   0.51380   1.000
    O11     O    0.07940   0.23700   0.47576   1.000
    O12     O    0.18520   0.38970   0.42620   1.000
    O13     O    0.90430   0.06050   0.39200   1.000
    O14     O    0.04030   0.20080   0.35150   1.000
    O15     O    0.15840   0.34990   0.31020   1.000
    O16     O    0.84350   0.12870   0.45590   1.000
    O17     O    0.94680   0.27430   0.38940   1.000
    O18     O    0.06370   0.41890   0.33610   1.000
    N10     N    0.01880   0.13070   0.51010   1.000
    N11     N    0.16280   0.33600   0.45090   1.000
    N12     N    0.94590   0.10350   0.36710   1.000
    N13     N    0.11510   0.29780   0.31110   1.000
    N14     N    0.86690   0.18250   0.43280   1.000
    N15     N    0.01490   0.37780   0.35710   1.000
    N16     N    0.63230   0.78180   0.56620   1.000
    B3      B    0.89470   0.07460   0.46000   1.000
    B4      B    0.14800   0.40140   0.35250   1.000
    C67     C    0.08450   0.13080   0.55880   1.000
    H69     H    0.09330   0.09790   0.58930   1.000
    C68     C    0.14540   0.17520   0.57150   1.000
    C69     C    0.21320   0.16590   0.62710   1.000
    H70     H    0.21540   0.13110   0.65400   1.000
    C70     C    0.27700   0.20470   0.64470   1.000
    C71     C    0.27070   0.25530   0.60520   1.000
    H71     H    0.31240   0.28350   0.61730   1.000
    C72     C    0.20640   0.26760   0.54800   1.000
    C73     C    0.14180   0.22700   0.52950   1.000
    C74     C    0.21070   0.32130   0.50990   1.000
    H72     H    0.25230   0.34840   0.52970   1.000
    C75     C    0.35100   0.19090   0.70460   1.000
    C76     C    0.34300   0.13640   0.74550   1.000
    H73     H    0.29860   0.14220   0.76280   1.000
    H74     H    0.33400   0.10060   0.71690   1.000
    H75     H    0.39110   0.13130   0.78340   1.000
    C77     C    0.36810   0.24680   0.75230   1.000
    H76     H    0.37350   0.28260   0.72680   1.000
    H77     H    0.32470   0.25260   0.77090   1.000
    H78     H    0.41670   0.24030   0.78920   1.000
    C78     C    0.41930   0.18440   0.67630   1.000
    H79     H    0.42260   0.22030   0.65020   1.000
    H80     H    0.46810   0.17970   0.71350   1.000
    H81     H    0.41100   0.14900   0.64710   1.000
    C79     C    0.41990   0.23120   0.70920   1.000
    H82     H    0.43310   0.22890   0.66710   1.000
    H83     H    0.40650   0.27280   0.71660   1.000
    H84     H    0.46500   0.21820   0.74680   1.000
    C80     C    0.32860   0.19350   0.77000   1.000
    H85     H    0.28380   0.16710   0.76590   1.000
    H86     H    0.37320   0.18030   0.80800   1.000
    H87     H    0.31470   0.23490   0.77780   1.000
    C81     C    0.37700   0.12450   0.69820   1.000
    H88     H    0.33310   0.09730   0.69510   1.000
    H89     H    0.39300   0.12060   0.65760   1.000
    H90     H    0.42110   0.11420   0.73790   1.000
    C82     C    0.95310   0.08750   0.30900   1.000
    H91     H    0.93050   0.05020   0.29070   1.000
    C83     C    0.99330   0.12230   0.26920   1.000
    C84     C    0.98790   0.09800   0.20530   1.000
    H92     H    0.95910   0.06190   0.19120   1.000
    C85     C    0.02410   0.12550   0.16160   1.000
    C86     C    0.06620   0.17750   0.18510   1.000
    H93     H    0.09290   0.19610   0.15760   1.000
    C87     C    0.07140   0.20420   0.24750   1.000
    C88     C    0.03460   0.17600   0.29160   1.000
    C89     C    0.11340   0.26170   0.26270   1.000
    H94     H    0.14230   0.27340   0.23360   1.000
    C90     C    0.02030   0.09930   0.09190   1.000
    C91     C    0.00380   0.14940   0.03860   1.000
    H95     H    0.04410   0.18060   0.05310   1.000
    H96     H    0.00470   0.13260   0.99550   1.000
    H97     H    0.95220   0.16700   0.03340   1.000
    C92     C    0.10110   0.07180   0.09650   1.000
    H98     H    0.11350   0.03950   0.13010   1.000
    H99     H    0.09950   0.05540   0.05250   1.000
    H100    H    0.14150   0.10300   0.10980   1.000
    C93     C    0.95610   0.05080   0.06790   1.000
    H101    H    0.96570   0.01840   0.10130   1.000
    H102    H    0.90470   0.06880   0.06250   1.000
    H103    H    0.95710   0.03440   0.02460   1.000
    C94     C    0.81120   0.22210   0.41970   1.000
    H104    H    0.76270   0.21000   0.42490   1.000
    C95     C    0.81720   0.28410   0.39760   1.000
    C96     C    0.75170   0.32130   0.39160   1.000
    H105    H    0.70740   0.30400   0.40020   1.000
    C97     C    0.74820   0.38120   0.37400   1.000
    C98     C    0.81410   0.40420   0.35970   1.000
    H106    H    0.81330   0.44500   0.34610   1.000
    C99     C    0.88150   0.36950   0.36460   1.000
    C100    C    0.88440   0.30840   0.38460   1.000
    C101    C    0.94610   0.40010   0.34910   1.000
    H107    H    0.93660   0.43970   0.33170   1.000
    C102    C    0.67620   0.41970   0.37280   1.000
    C103    C    0.68520   0.48510   0.35740   1.000
    H108    H    0.73380   0.50090   0.38880   1.000
    H109    H    0.68700   0.48900   0.31110   1.000
    H110    H    0.64060   0.50800   0.36220   1.000
    C104    C    0.60180   0.39270   0.32570   1.000
    H111    H    0.59810   0.35040   0.33740   1.000
    H112    H    0.55630   0.41460   0.33020   1.000
    H113    H    0.60270   0.39570   0.27910   1.000
    C105    C    0.66780   0.41880   0.44660   1.000
    H114    H    0.66180   0.37730   0.45970   1.000
    H115    H    0.71480   0.43640   0.47860   1.000
    H116    H    0.62180   0.44230   0.44690   1.000
    C106    C    0.84990   0.01920   0.48090   1.000
    C107    C    0.77130   0.00640   0.44510   1.000
    H117    H    0.74550   0.03040   0.40710   1.000
    C108    C    0.72990   0.96010   0.46310   1.000
    H118    H    0.67700   0.95330   0.43700   1.000
    C109    C    0.76430   0.92330   0.51870   1.000
    C110    C    0.84240   0.93610   0.55560   1.000
    H119    H    0.86770   0.91250   0.59420   1.000
    C111    C    0.88380   0.98260   0.53700   1.000
    H120    H    0.93670   0.98960   0.56320   1.000
    C112    C    0.72040   0.87240   0.53700   1.000
    C113    C    0.63960   0.87510   0.52110   1.000
    H121    H    0.61390   0.91030   0.49930   1.000
    C114    C    0.59540   0.83090   0.53450   1.000
    H122    H    0.54000   0.83430   0.52200   1.000
    C115    C    0.71260   0.77620   0.58750   1.000
    H123    H    0.73700   0.74170   0.61210   1.000
    C116    C    0.75760   0.82200   0.57240   1.000
    H124    H    0.81310   0.81880   0.58600   1.000
    C117    C    0.19180   0.45790   0.33380   1.000
    C118    C    0.22100   0.50510   0.37990   1.000
    H125    H    0.21430   0.50250   0.42320   1.000
    C119    C    0.25930   0.55530   0.36530   1.000
    H126    H    0.27670   0.58620   0.39790   1.000
    C120    C    0.27220   0.56030   0.30250   1.000
    C121    C    0.24160   0.51520   0.25570   1.000
    H127    H    0.24810   0.51780   0.21230   1.000
    C122    C    0.20200   0.46700   0.27060   1.000
    H128    H    0.18050   0.43820   0.23620   1.000
    C123    C    0.31430   0.61800   0.29110   1.000
    C124    C    0.36260   0.65260   0.34280   1.000
    H129    H    0.37100   0.64140   0.38840   1.000
    C125    C    0.39860   0.70370   0.32790   1.000
    H130    H    0.43160   0.72730   0.36330   1.000
    N17     N    0.38630   0.72010   0.26120   1.000
    C126    C    0.33800   0.68560   0.20940   1.000
    H131    H    0.32960   0.69680   0.16380   1.000
    C127    C    0.30200   0.63450   0.22430   1.000
    H132    H    0.26900   0.61090   0.18890   1.000
    C128    C    0.32840   0.59910   0.27730   1.000
    C129    C    0.40610   0.60450   0.31700   1.000
    H133    H    0.42540   0.58110   0.35680   1.000
    C130    C    0.45560   0.64420   0.29850   1.000
    H134    H    0.50870   0.64790   0.32560   1.000
    N18     N    0.42740   0.67840   0.24030   1.000
    C131    C    0.34970   0.67300   0.20060   1.000
    H135    H    0.33040   0.69650   0.16090   1.000
    C132    C    0.30020   0.63340   0.21910   1.000
    H136    H    0.24710   0.62970   0.19200   1.000
    Zn5     Zn   0.98149   0.31574   0.92299   1.000
    Zn6     Zn   0.06207   0.20916   0.88985   1.000
    O19     O    0.97230   0.41920   0.01380   1.000
    O20     O    0.07940   0.26300   0.97576   1.000
    O21     O    0.18520   0.11030   0.92620   1.000
    O22     O    0.90430   0.43950   0.89200   1.000
    O23     O    0.04030   0.29920   0.85150   1.000
    O24     O    0.15840   0.15010   0.81020   1.000
    O25     O    0.84350   0.37130   0.95590   1.000
    O26     O    0.94680   0.22570   0.88940   1.000
    O27     O    0.06370   0.08110   0.83610   1.000
    N19     N    0.01880   0.36930   0.01010   1.000
    N20     N    0.16280   0.16400   0.95090   1.000
    N21     N    0.94590   0.39650   0.86710   1.000
    N22     N    0.11510   0.20220   0.81110   1.000
    N23     N    0.86690   0.31750   0.93280   1.000
    N24     N    0.01490   0.12220   0.85710   1.000
    N25     N    0.63230   0.71820   0.06620   1.000
    B5      B    0.89470   0.42540   0.96000   1.000
    B6      B    0.14800   0.09860   0.85250   1.000
    C133    C    0.08450   0.36920   0.05880   1.000
    H137    H    0.09330   0.40210   0.08930   1.000
    C134    C    0.14540   0.32480   0.07150   1.000
    C135    C    0.21320   0.33410   0.12710   1.000
    H138    H    0.21540   0.36890   0.15400   1.000
    C136    C    0.27700   0.29530   0.14470   1.000
    C137    C    0.27070   0.24470   0.10520   1.000
    H139    H    0.31240   0.21650   0.11730   1.000
    C138    C    0.20640   0.23240   0.04800   1.000
    C139    C    0.14180   0.27300   0.02950   1.000
    C140    C    0.21070   0.17870   0.00990   1.000
    H140    H    0.25230   0.15160   0.02970   1.000
    C141    C    0.35100   0.30910   0.20460   1.000
    C142    C    0.34300   0.36360   0.24550   1.000
    H141    H    0.29860   0.35780   0.26280   1.000
    H142    H    0.33400   0.39940   0.21690   1.000
    H143    H    0.39110   0.36870   0.28340   1.000
    C143    C    0.36810   0.25320   0.25230   1.000
    H144    H    0.37350   0.21740   0.22680   1.000
    H145    H    0.32470   0.24740   0.27090   1.000
    H146    H    0.41670   0.25970   0.28920   1.000
    C144    C    0.41930   0.31560   0.17630   1.000
    H147    H    0.42260   0.27970   0.15020   1.000
    H148    H    0.46810   0.32030   0.21350   1.000
    H149    H    0.41100   0.35100   0.14710   1.000
    C145    C    0.41990   0.26880   0.20920   1.000
    H150    H    0.43310   0.27110   0.16710   1.000
    H151    H    0.40650   0.22720   0.21660   1.000
    H152    H    0.46500   0.28180   0.24680   1.000
    C146    C    0.32860   0.30650   0.27000   1.000
    H153    H    0.28380   0.33290   0.26590   1.000
    H154    H    0.37320   0.31970   0.30800   1.000
    H155    H    0.31470   0.26510   0.27780   1.000
    C147    C    0.37700   0.37550   0.19820   1.000
    H156    H    0.33310   0.40270   0.19510   1.000
    H157    H    0.39300   0.37940   0.15760   1.000
    H158    H    0.42110   0.38580   0.23790   1.000
    C148    C    0.95310   0.41250   0.80900   1.000
    H159    H    0.93050   0.44980   0.79070   1.000
    C149    C    0.99330   0.37770   0.76920   1.000
    C150    C    0.98790   0.40200   0.70530   1.000
    H160    H    0.95910   0.43810   0.69120   1.000
    C151    C    0.02410   0.37450   0.66160   1.000
    C152    C    0.06620   0.32250   0.68510   1.000
    H161    H    0.09290   0.30390   0.65760   1.000
    C153    C    0.07140   0.29580   0.74750   1.000
    C154    C    0.03460   0.32400   0.79160   1.000
    C155    C    0.11340   0.23830   0.76270   1.000
    H162    H    0.14230   0.22660   0.73360   1.000
    C156    C    0.02030   0.40070   0.59190   1.000
    C157    C    0.00380   0.35060   0.53860   1.000
    H163    H    0.04410   0.31940   0.55310   1.000
    H164    H    0.00470   0.36740   0.49550   1.000
    H165    H    0.95220   0.33300   0.53340   1.000
    C158    C    0.10110   0.42820   0.59650   1.000
    H166    H    0.11350   0.46050   0.63010   1.000
    H167    H    0.09950   0.44460   0.55250   1.000
    H168    H    0.14150   0.39700   0.60980   1.000
    C159    C    0.95610   0.44920   0.56790   1.000
    H169    H    0.96570   0.48160   0.60130   1.000
    H170    H    0.90470   0.43120   0.56250   1.000
    H171    H    0.95710   0.46560   0.52460   1.000
    C160    C    0.81120   0.27790   0.91970   1.000
    H172    H    0.76270   0.29000   0.92490   1.000
    C161    C    0.81720   0.21590   0.89760   1.000
    C162    C    0.75170   0.17870   0.89160   1.000
    H173    H    0.70740   0.19600   0.90020   1.000
    C163    C    0.74820   0.11880   0.87400   1.000
    C164    C    0.81410   0.09580   0.85970   1.000
    H174    H    0.81330   0.05500   0.84610   1.000
    C165    C    0.88150   0.13050   0.86460   1.000
    C166    C    0.88440   0.19160   0.88460   1.000
    C167    C    0.94610   0.09990   0.84910   1.000
    H175    H    0.93660   0.06030   0.83170   1.000
    C168    C    0.67620   0.08030   0.87280   1.000
    C169    C    0.68520   0.01490   0.85740   1.000
    H176    H    0.73380   0.99910   0.88880   1.000
    H177    H    0.68700   0.01100   0.81110   1.000
    H178    H    0.64060   0.99200   0.86220   1.000
    C170    C    0.60180   0.10730   0.82570   1.000
    H179    H    0.59810   0.14960   0.83740   1.000
    H180    H    0.55630   0.08540   0.83020   1.000
    H181    H    0.60270   0.10430   0.77910   1.000
    C171    C    0.66780   0.08120   0.94660   1.000
    H182    H    0.66180   0.12270   0.95970   1.000
    H183    H    0.71480   0.06360   0.97860   1.000
    H184    H    0.62180   0.05770   0.94690   1.000
    C172    C    0.84990   0.48080   0.98090   1.000
    C173    C    0.77130   0.49360   0.94510   1.000
    H185    H    0.74550   0.46960   0.90710   1.000
    C174    C    0.72990   0.53990   0.96310   1.000
    H186    H    0.67700   0.54670   0.93700   1.000
    C175    C    0.76430   0.57670   0.01870   1.000
    C176    C    0.84240   0.56390   0.05560   1.000
    H187    H    0.86770   0.58750   0.09420   1.000
    C177    C    0.88380   0.51740   0.03700   1.000
    H188    H    0.93670   0.51040   0.06320   1.000
    C178    C    0.72040   0.62760   0.03700   1.000
    C179    C    0.63960   0.62490   0.02110   1.000
    H189    H    0.61390   0.58970   0.99930   1.000
    C180    C    0.59540   0.66910   0.03450   1.000
    H190    H    0.54000   0.66570   0.02200   1.000
    C181    C    0.71260   0.72380   0.08750   1.000
    H191    H    0.73700   0.75830   0.11210   1.000
    C182    C    0.75760   0.67800   0.07240   1.000
    H192    H    0.81310   0.68120   0.08600   1.000
    C183    C    0.19180   0.04210   0.83380   1.000
    C184    C    0.22100   0.99490   0.87990   1.000
    H193    H    0.21430   0.99750   0.92320   1.000
    C185    C    0.25930   0.94470   0.86530   1.000
    H194    H    0.27670   0.91380   0.89790   1.000
    C186    C    0.27220   0.93970   0.80250   1.000
    C187    C    0.24160   0.98480   0.75570   1.000
    H195    H    0.24810   0.98220   0.71230   1.000
    C188    C    0.20200   0.03300   0.77060   1.000
    H196    H    0.18050   0.06180   0.73620   1.000
    C189    C    0.31430   0.88200   0.79110   1.000
    C190    C    0.36260   0.84740   0.84280   1.000
    H197    H    0.37100   0.85860   0.88840   1.000
    C191    C    0.39860   0.79630   0.82790   1.000
    H198    H    0.43160   0.77270   0.86330   1.000
    N26     N    0.38630   0.77990   0.76120   1.000
    C192    C    0.33800   0.81440   0.70940   1.000
    H199    H    0.32960   0.80320   0.66380   1.000
    C193    C    0.30200   0.86550   0.72430   1.000
    H200    H    0.26900   0.88910   0.68890   1.000
    C194    C    0.32840   0.90090   0.77730   1.000
    C195    C    0.40610   0.89550   0.81700   1.000
    H201    H    0.42540   0.91890   0.85680   1.000
    C196    C    0.45560   0.85580   0.79850   1.000
    H202    H    0.50870   0.85210   0.82560   1.000
    N27     N    0.42740   0.82160   0.74030   1.000
    C197    C    0.34970   0.82700   0.70060   1.000
    H203    H    0.33040   0.80350   0.66090   1.000
    C198    C    0.30020   0.86660   0.71910   1.000
    H204    H    0.24710   0.87030   0.69200   1.000
    Zn7     Zn   0.01851   0.81574   0.57701   1.000
    Zn8     Zn   0.93793   0.70916   0.61015   1.000
    O28     O    0.02770   0.91920   0.48620   1.000
    O29     O    0.92060   0.76300   0.52424   1.000
    O30     O    0.81480   0.61030   0.57380   1.000
    O31     O    0.09570   0.93950   0.60800   1.000
    O32     O    0.95970   0.79920   0.64850   1.000
    O33     O    0.84160   0.65010   0.68980   1.000
    O34     O    0.15650   0.87130   0.54410   1.000
    O35     O    0.05320   0.72570   0.61060   1.000
    O36     O    0.93630   0.58110   0.66390   1.000
    N28     N    0.98120   0.86930   0.48990   1.000
    N29     N    0.83720   0.66400   0.54910   1.000
    N30     N    0.05410   0.89650   0.63290   1.000
    N31     N    0.88490   0.70220   0.68890   1.000
    N32     N    0.13310   0.81750   0.56720   1.000
    N33     N    0.98510   0.62220   0.64290   1.000
    N34     N    0.36770   0.21820   0.43380   1.000
    B7      B    0.10530   0.92540   0.54000   1.000
    B8      B    0.85200   0.59860   0.64750   1.000
    C199    C    0.91550   0.86920   0.44120   1.000
    H205    H    0.90670   0.90210   0.41070   1.000
    C200    C    0.85460   0.82480   0.42850   1.000
    C201    C    0.78680   0.83410   0.37290   1.000
    H206    H    0.78460   0.86890   0.34600   1.000
    C202    C    0.72300   0.79530   0.35530   1.000
    C203    C    0.72930   0.74470   0.39480   1.000
    H207    H    0.68760   0.71650   0.38270   1.000
    C204    C    0.79360   0.73240   0.45200   1.000
    C205    C    0.85820   0.77300   0.47050   1.000
    C206    C    0.78930   0.67870   0.49010   1.000
    H208    H    0.74770   0.65160   0.47030   1.000
    C207    C    0.64900   0.80910   0.29540   1.000
    C208    C    0.65700   0.86360   0.25450   1.000
    H209    H    0.70140   0.85780   0.23720   1.000
    H210    H    0.66600   0.89940   0.28310   1.000
    H211    H    0.60890   0.86870   0.21660   1.000
    C209    C    0.63190   0.75320   0.24770   1.000
    H212    H    0.62650   0.71740   0.27320   1.000
    H213    H    0.67530   0.74740   0.22910   1.000
    H214    H    0.58330   0.75970   0.21080   1.000
    C210    C    0.58070   0.81560   0.32370   1.000
    H215    H    0.57740   0.77970   0.34980   1.000
    H216    H    0.53190   0.82030   0.28650   1.000
    H217    H    0.58900   0.85100   0.35290   1.000
    C211    C    0.58010   0.76880   0.29080   1.000
    H218    H    0.56690   0.77110   0.33290   1.000
    H219    H    0.59350   0.72720   0.28340   1.000
    H220    H    0.53500   0.78180   0.25320   1.000
    C212    C    0.67140   0.80650   0.23000   1.000
    H221    H    0.71620   0.83290   0.23410   1.000
    H222    H    0.62680   0.81970   0.19200   1.000
    H223    H    0.68530   0.76510   0.22220   1.000
    C213    C    0.62300   0.87550   0.30180   1.000
    H224    H    0.66690   0.90270   0.30490   1.000
    H225    H    0.60700   0.87940   0.34240   1.000
    H226    H    0.57890   0.88580   0.26210   1.000
    C214    C    0.04690   0.91250   0.69100   1.000
    H227    H    0.06950   0.94980   0.70930   1.000
    C215    C    0.00670   0.87770   0.73080   1.000
    C216    C    0.01210   0.90200   0.79470   1.000
    H228    H    0.04090   0.93810   0.80880   1.000
    C217    C    0.97590   0.87450   0.83840   1.000
    C218    C    0.93380   0.82250   0.81490   1.000
    H229    H    0.90710   0.80390   0.84240   1.000
    C219    C    0.92860   0.79580   0.75250   1.000
    C220    C    0.96540   0.82400   0.70840   1.000
    C221    C    0.88660   0.73830   0.73730   1.000
    H230    H    0.85770   0.72660   0.76640   1.000
    C222    C    0.97970   0.90070   0.90810   1.000
    C223    C    0.99620   0.85060   0.96140   1.000
    H231    H    0.95590   0.81940   0.94690   1.000
    H232    H    0.99530   0.86740   0.00450   1.000
    H233    H    0.04780   0.83300   0.96660   1.000
    C224    C    0.89890   0.92820   0.90350   1.000
    H234    H    0.88650   0.96050   0.86990   1.000
    H235    H    0.90050   0.94460   0.94750   1.000
    H236    H    0.85850   0.89700   0.89020   1.000
    C225    C    0.04390   0.94920   0.93210   1.000
    H237    H    0.03430   0.98160   0.89870   1.000
    H238    H    0.09530   0.93120   0.93750   1.000
    H239    H    0.04290   0.96560   0.97540   1.000
    C226    C    0.18880   0.77790   0.58030   1.000
    H240    H    0.23730   0.79000   0.57510   1.000
    C227    C    0.18280   0.71590   0.60240   1.000
    C228    C    0.24830   0.67870   0.60840   1.000
    H241    H    0.29260   0.69600   0.59980   1.000
    C229    C    0.25180   0.61880   0.62600   1.000
    C230    C    0.18590   0.59580   0.64030   1.000
    H242    H    0.18670   0.55500   0.65390   1.000
    C231    C    0.11850   0.63050   0.63540   1.000
    C232    C    0.11560   0.69160   0.61540   1.000
    C233    C    0.05390   0.59990   0.65090   1.000
    H243    H    0.06340   0.56030   0.66830   1.000
    C234    C    0.32380   0.58030   0.62720   1.000
    C235    C    0.31480   0.51490   0.64260   1.000
    H244    H    0.26620   0.49910   0.61120   1.000
    H245    H    0.31300   0.51100   0.68890   1.000
    H246    H    0.35940   0.49200   0.63780   1.000
    C236    C    0.39820   0.60730   0.67430   1.000
    H247    H    0.40190   0.64960   0.66260   1.000
    H248    H    0.44370   0.58540   0.66980   1.000
    H249    H    0.39730   0.60430   0.72090   1.000
    C237    C    0.33220   0.58120   0.55340   1.000
    H250    H    0.33820   0.62270   0.54030   1.000
    H251    H    0.28520   0.56360   0.52140   1.000
    H252    H    0.37820   0.55770   0.55310   1.000
    C238    C    0.15010   0.98080   0.51910   1.000
    C239    C    0.22870   0.99360   0.55490   1.000
    H253    H    0.25450   0.96960   0.59290   1.000
    C240    C    0.27010   0.03990   0.53690   1.000
    H254    H    0.32300   0.04670   0.56300   1.000
    C241    C    0.23570   0.07670   0.48130   1.000
    C242    C    0.15760   0.06390   0.44440   1.000
    H255    H    0.13230   0.08750   0.40580   1.000
    C243    C    0.11620   0.01740   0.46300   1.000
    H256    H    0.06330   0.01040   0.43680   1.000
    C244    C    0.27960   0.12760   0.46300   1.000
    C245    C    0.36040   0.12490   0.47890   1.000
    H257    H    0.38610   0.08970   0.50070   1.000
    C246    C    0.40460   0.16910   0.46550   1.000
    H258    H    0.46000   0.16570   0.47800   1.000
    C247    C    0.28740   0.22380   0.41250   1.000
    H259    H    0.26300   0.25830   0.38790   1.000
    C248    C    0.24240   0.17800   0.42760   1.000
    H260    H    0.18690   0.18120   0.41400   1.000
    C249    C    0.80820   0.54210   0.66620   1.000
    C250    C    0.77900   0.49490   0.62010   1.000
    H261    H    0.78570   0.49750   0.57680   1.000
    C251    C    0.74070   0.44470   0.63470   1.000
    H262    H    0.72330   0.41380   0.60210   1.000
    C252    C    0.72780   0.43970   0.69750   1.000
    C253    C    0.75840   0.48480   0.74430   1.000
    H263    H    0.75190   0.48220   0.78770   1.000
    C254    C    0.79800   0.53300   0.72940   1.000
    H264    H    0.81950   0.56180   0.76380   1.000
    C255    C    0.68570   0.38200   0.70890   1.000
    C256    C    0.63740   0.34740   0.65720   1.000
    H265    H    0.62900   0.35860   0.61160   1.000
    C257    C    0.60140   0.29630   0.67210   1.000
    H266    H    0.56840   0.27270   0.63670   1.000
    N35     N    0.61370   0.27990   0.73880   1.000
    C258    C    0.66200   0.31440   0.79060   1.000
    H267    H    0.67040   0.30320   0.83620   1.000
    C259    C    0.69800   0.36550   0.77570   1.000
    H268    H    0.73100   0.38910   0.81110   1.000
    C260    C    0.67160   0.40090   0.72270   1.000
    C261    C    0.59390   0.39550   0.68300   1.000
    H269    H    0.57460   0.41890   0.64320   1.000
    C262    C    0.54440   0.35580   0.70150   1.000
    H270    H    0.49130   0.35210   0.67440   1.000
    N36     N    0.57260   0.32160   0.75970   1.000
    C263    C    0.65030   0.32700   0.79940   1.000
    H271    H    0.66960   0.30350   0.83910   1.000
    C264    C    0.69980   0.36660   0.78090   1.000
    H272    H    0.75290   0.37030   0.80800   1.000
