data_functionalizedCrystal
_audit_creation_method	'EQeq! by Chris Wilmer'
_symmetry_space_group_name_H-M	'P1'
_symmetry_Int_Tables_number	1
_symmetry_cell_setting	triclinic
loop_
_symmetry_equiv_pos_as_xyz
  x,y,z
_cell_length_a	24.2037
_cell_length_b	24.2037
_cell_length_c	18.973
_cell_angle_alpha	90
_cell_angle_beta	90
_cell_angle_gamma	90
loop_
_atom_site_label
_atom_site_type_symbol
_atom_site_fract_x
_atom_site_fract_y
_atom_site_fract_z
_atom_site_charge
Mof_N 	N 	0.5109	0.4185	0.4154	-0.152
Mof_N 	N 	0.4193	0.5108	0.416	-0.155
Mof_C 	C 	0.4983	0.3722	0.3781	0.078
Mof_C 	C 	0.5574	0.4426	0.3899	0.104
Mof_C 	C 	0.3739	0.497	0.3808	0.078
Mof_N 	N 	0.5332	0.3586	0.324	-0.131
Mof_H 	H 	0.4675	0.3509	0.3888	0.035
Mof_C 	C 	0.5721	0.4049	0.332	0.014
Mof_N 	N 	0.3593	0.5326	0.3254	-0.133
Mof_H 	H 	0.3532	0.4659	0.3921	0.034
Mof_C 	C 	0.6168	0.4173	0.2954	-0.035
Mof_O 	O 	0.43	0.2199	0.2439	-0.269
Mof_O 	O 	0.4199	0.2891	0.3103	-0.267
Mof_N 	N 	0.6318	0.3884	0.2378	0.195
Mof_O 	O 	0.2194	0.5697	0.257	-0.252
Mof_O 	O 	0.2875	0.58	0.1871	-0.232
Mof_C 	C 	0.4096	0.2378	0.2988	0.349
Mof_H 	H 	0.612	0.361	0.224	-0.533
Mof_H 	H 	0.6611	0.3974	0.215	0.221
Mof_C 	C 	0.2372	0.4101	0.3005	0.336
Mof_C 	C 	0.3492	0.2203	0.3147	-0.056
Mof_C 	C 	0.2219	0.3493	0.3141	-0.049
Mof_C 	C 	0.3285	0.1705	0.2895	0.036
Mof_C 	C 	0.3195	0.2503	0.3644	-0.016
Mof_C 	C 	0.2515	0.3193	0.3638	-0.018
Mof_H 	H 	0.3483	0.1504	0.2563	0.023
Mof_C 	C 	0.2692	0.2305	0.3889	-0.037
Mof_H 	H 	0.3334	0.2836	0.3812	0.055
Mof_H 	H 	0.2852	0.3325	0.3802	0.056
Mof_N 	N 	0.6125	0.3686	0.2434	0.269
Mof_H 	H 	0.6407	0.388	0.2314	-0.299
Mof_H 	H 	0.6043	0.3392	0.2201	0.388
Mof_C 	C 	0.5813	0.384	0.2985	-0.033
Mof_C 	C 	0.5957	0.4296	0.3323	0.055
Mof_O 	O 	0.7338	0.5598	0.3393	-0.131
Mof_O 	O 	0.9395	0.7674	0.3377	-0.113
Mof_C 	C 	0.8032	0.6268	0.3451	-0.024
Mof_C 	C 	0.795	0.6351	0.4168	0.007
Mof_H 	H 	0.7686	0.6146	0.4408	0.051
Mof_C 	C 	0.8263	0.6743	0.4525	-0.098
Mof_C 	C 	0.8657	0.7051	0.4166	0.005
Mof_H 	H 	0.8867	0.7313	0.4406	0.052
Mof_C 	C 	0.8739	0.6967	0.3449	-0.017
Mof_C 	C 	0.8427	0.6575	0.3091	-0.007
Mof_H 	H 	0.8482	0.6519	0.2611	0.03
Mof_N 	N 	0.0109	0.9185	0.4154	-0.169
Mof_N 	N 	0.9193	0.0108	0.416	-0.172
Mof_C 	C 	0.9983	0.8722	0.3781	0.121
Mof_C 	C 	0.0574	0.9426	0.3899	0.104
Mof_C 	C 	0.8739	0.997	0.3808	0.12
Mof_N 	N 	0.0332	0.8586	0.324	-0.146
Mof_H 	H 	0.9675	0.8509	0.3888	0.025
Mof_C 	C 	0.0721	0.9049	0.332	0.023
Mof_N 	N 	0.8593	0.0326	0.3254	-0.147
Mof_H 	H 	0.8532	0.9659	0.3921	0.024
Mof_C 	C 	0.1168	0.9173	0.2954	-0.028
Mof_O 	O 	0.93	0.7199	0.2439	-0.257
Mof_O 	O 	0.9199	0.7891	0.3103	-0.265
Mof_N 	N 	0.1318	0.8884	0.2378	0.195
Mof_O 	O 	0.7194	0.0697	0.257	-0.255
Mof_O 	O 	0.7875	0.08	0.1871	-0.23
Mof_C 	C 	0.9096	0.7378	0.2988	0.345
Mof_H 	H 	0.112	0.861	0.224	-0.532
Mof_H 	H 	0.1611	0.8974	0.215	0.224
Mof_C 	C 	0.7372	0.9101	0.3005	0.333
Mof_C 	C 	0.8492	0.7203	0.3147	-0.058
Mof_C 	C 	0.7219	0.8493	0.3141	-0.05
Mof_C 	C 	0.8285	0.6705	0.2895	0.03
Mof_C 	C 	0.8195	0.7503	0.3644	-0.013
Mof_C 	C 	0.7515	0.8193	0.3638	-0.016
Mof_H 	H 	0.8483	0.6504	0.2563	0.024
Mof_C 	C 	0.7692	0.7305	0.3889	-0.039
Mof_H 	H 	0.8334	0.7836	0.3812	0.054
Mof_H 	H 	0.7852	0.8325	0.3802	0.056
Mof_N 	N 	0.1125	0.8686	0.2434	0.269
Mof_H 	H 	0.1407	0.888	0.2314	-0.3
Mof_H 	H 	0.1043	0.8392	0.2201	0.387
Mof_C 	C 	0.0813	0.884	0.2985	-0.039
Mof_C 	C 	0.0957	0.9296	0.3323	0.046
Mof_O 	O 	0.2338	0.0598	0.3393	-0.136
Mof_O 	O 	0.4395	0.2674	0.3377	-0.121
Mof_C 	C 	0.3032	0.1268	0.3451	-0.03
Mof_C 	C 	0.295	0.1351	0.4168	0.015
Mof_H 	H 	0.2686	0.1146	0.4408	0.047
Mof_C 	C 	0.3263	0.1743	0.4525	-0.113
Mof_C 	C 	0.3657	0.2051	0.4166	0.013
Mof_H 	H 	0.3867	0.2313	0.4406	0.047
Mof_C 	C 	0.3739	0.1967	0.3449	-0.024
Mof_C 	C 	0.3427	0.1575	0.3091	-0.011
Mof_H 	H 	0.3482	0.1519	0.2611	0.028
Mof_N 	N 	0.4891	0.5815	0.4154	-0.151
Mof_N 	N 	0.5807	0.4892	0.416	-0.154
Mof_C 	C 	0.5017	0.6278	0.3781	0.08
Mof_C 	C 	0.4426	0.5574	0.3899	0.104
Mof_C 	C 	0.6261	0.503	0.3808	0.078
Mof_N 	N 	0.4668	0.6414	0.324	-0.131
Mof_H 	H 	0.5325	0.6491	0.3888	0.035
Mof_C 	C 	0.4279	0.5951	0.332	0.014
Mof_N 	N 	0.6407	0.4674	0.3254	-0.133
Mof_H 	H 	0.6468	0.5341	0.3921	0.034
Mof_C 	C 	0.3832	0.5827	0.2954	-0.035
Mof_O 	O 	0.57	0.7801	0.2439	-0.266
Mof_O 	O 	0.5801	0.7109	0.3103	-0.267
Mof_N 	N 	0.3682	0.6116	0.2378	0.195
Mof_O 	O 	0.7806	0.4303	0.257	-0.249
Mof_O 	O 	0.7125	0.42	0.1871	-0.232
Mof_C 	C 	0.5904	0.7622	0.2988	0.348
Mof_H 	H 	0.388	0.639	0.224	-0.533
Mof_H 	H 	0.3389	0.6026	0.215	0.221
Mof_C 	C 	0.7628	0.5899	0.3005	0.335
Mof_C 	C 	0.6508	0.7797	0.3147	-0.058
Mof_C 	C 	0.7781	0.6507	0.3141	-0.05
Mof_C 	C 	0.6715	0.8295	0.2895	0.03
Mof_C 	C 	0.6805	0.7497	0.3644	-0.013
Mof_C 	C 	0.7485	0.6807	0.3638	-0.016
Mof_H 	H 	0.6517	0.8496	0.2563	0.024
Mof_C 	C 	0.7308	0.7695	0.3889	-0.039
Mof_H 	H 	0.6666	0.7164	0.3812	0.054
Mof_H 	H 	0.7148	0.6675	0.3802	0.056
Mof_N 	N 	0.3875	0.6314	0.2434	0.269
Mof_H 	H 	0.3593	0.612	0.2314	-0.299
Mof_H 	H 	0.3957	0.6608	0.2201	0.388
Mof_C 	C 	0.4187	0.616	0.2985	-0.033
Mof_C 	C 	0.4043	0.5704	0.3323	0.054
Mof_O 	O 	0.2662	0.4402	0.3393	-0.132
Mof_O 	O 	0.0605	0.2326	0.3377	-0.124
Mof_C 	C 	0.1968	0.3732	0.3451	-0.029
Mof_C 	C 	0.205	0.3649	0.4168	0.015
Mof_H 	H 	0.2314	0.3854	0.4408	0.048
Mof_C 	C 	0.1737	0.3257	0.4525	-0.113
Mof_C 	C 	0.1343	0.2949	0.4166	0.014
Mof_H 	H 	0.1133	0.2687	0.4406	0.046
Mof_C 	C 	0.1261	0.3033	0.3449	-0.026
Mof_C 	C 	0.1573	0.3425	0.3091	-0.011
Mof_H 	H 	0.1518	0.3481	0.2611	0.028
Mof_N 	N 	0.9891	0.0815	0.4154	-0.134
Mof_N 	N 	0.0807	0.9892	0.416	-0.136
Mof_C 	C 	0.0017	0.1278	0.3781	0.039
Mof_C 	C 	0.9426	0.0574	0.3899	0.105
Mof_C 	C 	0.1261	0.003	0.3808	0.037
Mof_N 	N 	0.9668	0.1414	0.324	-0.114
Mof_H 	H 	0.0325	0.1491	0.3888	0.046
Mof_C 	C 	0.9279	0.0951	0.332	0.004
Mof_N 	N 	0.1407	0.9674	0.3254	-0.115
Mof_H 	H 	0.1468	0.0341	0.3921	0.045
Mof_C 	C 	0.8832	0.0827	0.2954	-0.04
Mof_O 	O 	0.07	0.2801	0.2439	-0.272
Mof_O 	O 	0.0801	0.2109	0.3103	-0.266
Mof_N 	N 	0.8682	0.1116	0.2378	0.196
Mof_O 	O 	0.2806	0.9303	0.257	-0.241
Mof_O 	O 	0.2125	0.92	0.1871	-0.231
Mof_C 	C 	0.0904	0.2622	0.2988	0.35
Mof_H 	H 	0.888	0.139	0.224	-0.535
Mof_H 	H 	0.8389	0.1026	0.215	0.22
Mof_C 	C 	0.2628	0.0899	0.3005	0.337
Mof_C 	C 	0.1508	0.2797	0.3147	-0.056
Mof_C 	C 	0.2781	0.1507	0.3141	-0.048
Mof_C 	C 	0.1715	0.3295	0.2895	0.036
Mof_C 	C 	0.1805	0.2497	0.3644	-0.016
Mof_C 	C 	0.2485	0.1807	0.3638	-0.018
Mof_H 	H 	0.1517	0.3496	0.2563	0.023
Mof_C 	C 	0.2308	0.2695	0.3889	-0.037
Mof_H 	H 	0.1666	0.2164	0.3812	0.055
Mof_H 	H 	0.2148	0.1675	0.3802	0.056
Mof_N 	N 	0.8875	0.1314	0.2434	0.268
Mof_H 	H 	0.8593	0.112	0.2314	-0.298
Mof_H 	H 	0.8957	0.1608	0.2201	0.391
Mof_C 	C 	0.9187	0.116	0.2985	-0.025
Mof_C 	C 	0.9043	0.0704	0.3323	0.062
Mof_O 	O 	0.7662	0.9402	0.3393	-0.124
Mof_O 	O 	0.5605	0.7326	0.3377	-0.12
Mof_C 	C 	0.6968	0.8732	0.3451	-0.022
Mof_C 	C 	0.705	0.8649	0.4168	0.007
Mof_H 	H 	0.7314	0.8854	0.4408	0.052
Mof_C 	C 	0.6737	0.8257	0.4525	-0.099
Mof_C 	C 	0.6343	0.7949	0.4166	0.005
Mof_H 	H 	0.6133	0.7687	0.4406	0.051
Mof_C 	C 	0.6261	0.8033	0.3449	-0.019
Mof_C 	C 	0.6573	0.8425	0.3091	-0.007
Mof_H 	H 	0.6518	0.8481	0.2611	0.03
Mof_N 	N 	0.4891	0.4185	0.0846	-0.152
Mof_N 	N 	0.5807	0.5108	0.084	-0.154
Mof_C 	C 	0.5017	0.3722	0.1219	0.078
Mof_C 	C 	0.4426	0.4426	0.1101	0.102
Mof_C 	C 	0.6261	0.497	0.1192	0.077
Mof_N 	N 	0.4668	0.3586	0.176	-0.132
Mof_H 	H 	0.5325	0.3509	0.1112	0.035
Mof_C 	C 	0.4279	0.4049	0.168	0.014
Mof_N 	N 	0.6407	0.5326	0.1746	-0.133
Mof_H 	H 	0.6468	0.4659	0.1079	0.034
Mof_C 	C 	0.3832	0.4173	0.2046	-0.036
Mof_O 	O 	0.57	0.2199	0.2561	-0.267
Mof_O 	O 	0.5801	0.2891	0.1897	-0.265
Mof_N 	N 	0.3682	0.3884	0.2622	0.195
Mof_O 	O 	0.7806	0.5697	0.243	-0.25
Mof_O 	O 	0.7125	0.58	0.3129	-0.233
Mof_C 	C 	0.5904	0.2378	0.2012	0.347
Mof_H 	H 	0.388	0.361	0.276	-0.534
Mof_H 	H 	0.3389	0.3974	0.285	0.221
Mof_C 	C 	0.7628	0.4101	0.1995	0.333
Mof_C 	C 	0.6508	0.2203	0.1853	-0.057
Mof_C 	C 	0.7781	0.3493	0.1859	-0.051
Mof_C 	C 	0.6715	0.1705	0.2105	0.02
Mof_C 	C 	0.6805	0.2503	0.1356	-0.01
Mof_C 	C 	0.7485	0.3193	0.1362	-0.008
Mof_H 	H 	0.6517	0.1504	0.2437	0.024
Mof_C 	C 	0.7308	0.2305	0.1111	-0.042
Mof_H 	H 	0.6666	0.2836	0.1188	0.052
Mof_H 	H 	0.7148	0.3325	0.1198	0.052
Mof_N 	N 	0.3875	0.3686	0.2566	0.269
Mof_H 	H 	0.3593	0.388	0.2686	-0.299
Mof_H 	H 	0.3957	0.3392	0.2799	0.388
Mof_C 	C 	0.4187	0.384	0.2015	-0.034
Mof_C 	C 	0.4043	0.4296	0.1677	0.055
Mof_O 	O 	0.2662	0.5598	0.1607	-0.134
Mof_O 	O 	0.0605	0.7674	0.1623	-0.126
Mof_C 	C 	0.1968	0.6268	0.1549	-0.022
Mof_C 	C 	0.205	0.6351	0.0832	-0.013
Mof_H 	H 	0.2314	0.6146	0.0592	0.054
Mof_C 	C 	0.1737	0.6743	0.0475	-0.068
Mof_C 	C 	0.1343	0.7051	0.0834	-0.014
Mof_H 	H 	0.1133	0.7313	0.0594	0.053
Mof_C 	C 	0.1261	0.6967	0.1551	-0.019
Mof_C 	C 	0.1573	0.6575	0.1909	-0
Mof_H 	H 	0.1518	0.6519	0.2389	0.029
Mof_N 	N 	0.9891	0.9185	0.0846	-0.132
Mof_N 	N 	0.0807	0.0108	0.084	-0.175
Mof_C 	C 	0.0017	0.8722	0.1219	0.04
Mof_C 	C 	0.9426	0.9426	0.1101	0.108
Mof_C 	C 	0.1261	0.997	0.1192	0.117
Mof_N 	N 	0.9668	0.8586	0.176	-0.113
Mof_H 	H 	0.0325	0.8509	0.1112	0.046
Mof_C 	C 	0.9279	0.9049	0.168	0.017
Mof_N 	N 	0.1407	0.0326	0.1746	-0.147
Mof_H 	H 	0.1468	0.9659	0.1079	0.023
Mof_C 	C 	0.8832	0.9173	0.2046	-0.036
Mof_O 	O 	0.07	0.7199	0.2561	-0.27
Mof_O 	O 	0.0801	0.7891	0.1897	-0.264
Mof_N 	N 	0.8682	0.8884	0.2622	0.195
Mof_O 	O 	0.2806	0.0697	0.243	-0.257
Mof_O 	O 	0.2125	0.08	0.3129	-0.232
Mof_C 	C 	0.0904	0.7378	0.2012	0.348
Mof_H 	H 	0.888	0.861	0.276	-0.53
Mof_H 	H 	0.8389	0.8974	0.285	0.223
Mof_C 	C 	0.2628	0.9101	0.1995	0.331
Mof_C 	C 	0.1508	0.7203	0.1853	-0.056
Mof_C 	C 	0.2781	0.8493	0.1859	-0.051
Mof_C 	C 	0.1715	0.6705	0.2105	0.02
Mof_C 	C 	0.1805	0.7503	0.1356	-0.01
Mof_C 	C 	0.2485	0.8193	0.1362	-0.008
Mof_H 	H 	0.1517	0.6504	0.2437	0.024
Mof_C 	C 	0.2308	0.7305	0.1111	-0.042
Mof_H 	H 	0.1666	0.7836	0.1188	0.052
Mof_H 	H 	0.2148	0.8325	0.1198	0.053
Mof_N 	N 	0.8875	0.8686	0.2566	0.267
Mof_H 	H 	0.8593	0.888	0.2686	-0.297
Mof_H 	H 	0.8957	0.8392	0.2799	0.389
Mof_C 	C 	0.9187	0.884	0.2015	-0.033
Mof_C 	C 	0.9043	0.9296	0.1677	0.06
Mof_O 	O 	0.7662	0.0598	0.1607	-0.137
Mof_O 	O 	0.5605	0.2674	0.1623	-0.123
Mof_C 	C 	0.6968	0.1268	0.1549	-0.023
Mof_C 	C 	0.705	0.1351	0.0832	-0.012
Mof_H 	H 	0.7314	0.1146	0.0592	0.053
Mof_C 	C 	0.6737	0.1743	0.0475	-0.068
Mof_C 	C 	0.6343	0.2051	0.0834	-0.014
Mof_H 	H 	0.6133	0.2313	0.0594	0.054
Mof_C 	C 	0.6261	0.1967	0.1551	-0.018
Mof_C 	C 	0.6573	0.1575	0.1909	-0
Mof_H 	H 	0.6518	0.1519	0.2389	0.029
Mof_N 	N 	0.5109	0.5815	0.0846	-0.152
Mof_N 	N 	0.4193	0.4892	0.084	-0.154
Mof_C 	C 	0.4983	0.6278	0.1219	0.079
Mof_C 	C 	0.5574	0.5574	0.1101	0.103
Mof_C 	C 	0.3739	0.503	0.1192	0.077
Mof_N 	N 	0.5332	0.6414	0.176	-0.132
Mof_H 	H 	0.4675	0.6491	0.1112	0.035
Mof_C 	C 	0.5721	0.5951	0.168	0.014
Mof_N 	N 	0.3593	0.4674	0.1746	-0.133
Mof_H 	H 	0.3532	0.5341	0.1079	0.034
Mof_C 	C 	0.6168	0.5827	0.2046	-0.035
Mof_O 	O 	0.43	0.7801	0.2561	-0.264
Mof_O 	O 	0.4199	0.7109	0.1897	-0.266
Mof_N 	N 	0.6318	0.6116	0.2622	0.195
Mof_O 	O 	0.2194	0.4303	0.243	-0.254
Mof_O 	O 	0.2875	0.42	0.3129	-0.233
Mof_C 	C 	0.4096	0.7622	0.2012	0.346
Mof_H 	H 	0.612	0.639	0.276	-0.533
Mof_H 	H 	0.6611	0.6026	0.285	0.221
Mof_C 	C 	0.2372	0.5899	0.1995	0.334
Mof_C 	C 	0.3492	0.7797	0.1853	-0.059
Mof_C 	C 	0.2219	0.6507	0.1859	-0.049
Mof_C 	C 	0.3285	0.8295	0.2105	0.013
Mof_C 	C 	0.3195	0.7497	0.1356	-0.005
Mof_C 	C 	0.2515	0.6807	0.1362	-0.012
Mof_H 	H 	0.3483	0.8496	0.2437	0.026
Mof_C 	C 	0.2692	0.7695	0.1111	-0.047
Mof_H 	H 	0.3334	0.7164	0.1188	0.051
Mof_H 	H 	0.2852	0.6675	0.1198	0.054
Mof_N 	N 	0.6125	0.6314	0.2566	0.269
Mof_H 	H 	0.6407	0.612	0.2686	-0.299
Mof_H 	H 	0.6043	0.6608	0.2799	0.388
Mof_C 	C 	0.5813	0.616	0.2015	-0.033
Mof_C 	C 	0.5957	0.5704	0.1677	0.055
Mof_O 	O 	0.7338	0.4402	0.1607	-0.132
Mof_O 	O 	0.9395	0.2326	0.1623	-0.114
Mof_C 	C 	0.8032	0.3732	0.1549	-0.016
Mof_C 	C 	0.795	0.3649	0.0832	-0.023
Mof_H 	H 	0.7686	0.3854	0.0592	0.058
Mof_C 	C 	0.8263	0.3257	0.0475	-0.05
Mof_C 	C 	0.8657	0.2949	0.0834	-0.025
Mof_H 	H 	0.8867	0.2687	0.0594	0.059
Mof_C 	C 	0.8739	0.3033	0.1551	-0.009
Mof_C 	C 	0.8427	0.3425	0.1909	0.005
Mof_H 	H 	0.8482	0.3481	0.2389	0.031
Mof_N 	N 	0.0109	0.0815	0.0846	-0.172
Mof_N 	N 	0.9193	0.9892	0.084	-0.134
Mof_C 	C 	0.9983	0.1278	0.1219	0.118
Mof_C 	C 	0.0574	0.0574	0.1101	0.099
Mof_C 	C 	0.8739	0.003	0.1192	0.038
Mof_N 	N 	0.0332	0.1414	0.176	-0.146
Mof_H 	H 	0.9675	0.1491	0.1112	0.025
Mof_C 	C 	0.0721	0.0951	0.168	0.01
Mof_N 	N 	0.8593	0.9674	0.1746	-0.116
Mof_H 	H 	0.8532	0.0341	0.1079	0.045
Mof_C 	C 	0.1168	0.0827	0.2046	-0.033
Mof_O 	O 	0.93	0.2801	0.2561	-0.256
Mof_O 	O 	0.9199	0.2109	0.1897	-0.264
Mof_N 	N 	0.1318	0.1116	0.2622	0.196
Mof_O 	O 	0.7194	0.9303	0.243	-0.242
Mof_O 	O 	0.7875	0.92	0.3129	-0.231
Mof_C 	C 	0.9096	0.2622	0.2012	0.344
Mof_H 	H 	0.112	0.139	0.276	-0.536
Mof_H 	H 	0.1611	0.1026	0.285	0.221
Mof_C 	C 	0.7372	0.0899	0.1995	0.335
Mof_C 	C 	0.8492	0.2797	0.1853	-0.06
Mof_C 	C 	0.7219	0.1507	0.1859	-0.048
Mof_C 	C 	0.8285	0.3295	0.2105	0.012
Mof_C 	C 	0.8195	0.2497	0.1356	-0.005
Mof_C 	C 	0.7515	0.1807	0.1362	-0.012
Mof_H 	H 	0.8483	0.3496	0.2437	0.026
Mof_C 	C 	0.7692	0.2695	0.1111	-0.047
Mof_H 	H 	0.8334	0.2164	0.1188	0.051
Mof_H 	H 	0.7852	0.1675	0.1198	0.054
Mof_N 	N 	0.1125	0.1314	0.2566	0.27
Mof_H 	H 	0.1407	0.112	0.2686	-0.301
Mof_H 	H 	0.1043	0.1608	0.2799	0.389
Mof_C 	C 	0.0813	0.116	0.2015	-0.032
Mof_C 	C 	0.0957	0.0704	0.1677	0.048
Mof_O 	O 	0.2338	0.9402	0.1607	-0.125
Mof_O 	O 	0.4395	0.7326	0.1623	-0.121
Mof_C 	C 	0.3032	0.8732	0.1549	-0.014
Mof_C 	C 	0.295	0.8649	0.0832	-0.023
Mof_H 	H 	0.2686	0.8854	0.0592	0.059
Mof_C 	C 	0.3263	0.8257	0.0475	-0.05
Mof_C 	C 	0.3657	0.7949	0.0834	-0.025
Mof_H 	H 	0.3867	0.7687	0.0594	0.058
Mof_C 	C 	0.3739	0.8033	0.1551	-0.011
Mof_C 	C 	0.3427	0.8425	0.1909	0.005
Mof_H 	H 	0.3482	0.8481	0.2389	0.031
Mof_N 	N 	0.4891	0.5815	0.5846	-0.151
Mof_N 	N 	0.5807	0.4892	0.584	-0.154
Mof_C 	C 	0.5017	0.6278	0.6219	0.08
Mof_C 	C 	0.4426	0.5574	0.6101	0.104
Mof_C 	C 	0.6261	0.503	0.6192	0.078
Mof_N 	N 	0.4668	0.6414	0.676	-0.131
Mof_H 	H 	0.5325	0.6491	0.6112	0.035
Mof_C 	C 	0.4279	0.5951	0.668	0.014
Mof_N 	N 	0.6407	0.4674	0.6746	-0.133
Mof_H 	H 	0.6468	0.5341	0.6079	0.034
Mof_C 	C 	0.3832	0.5827	0.7046	-0.035
Mof_O 	O 	0.57	0.7801	0.7561	-0.263
Mof_O 	O 	0.5801	0.7109	0.6897	-0.267
Mof_N 	N 	0.3682	0.6116	0.7622	0.195
Mof_O 	O 	0.7806	0.4303	0.743	-0.248
Mof_O 	O 	0.7125	0.42	0.8129	-0.232
Mof_C 	C 	0.5904	0.7622	0.7012	0.348
Mof_H 	H 	0.388	0.639	0.776	-0.533
Mof_H 	H 	0.3389	0.6026	0.785	0.222
Mof_C 	C 	0.7628	0.5899	0.6995	0.335
Mof_C 	C 	0.6508	0.7797	0.6853	-0.056
Mof_C 	C 	0.7781	0.6507	0.6859	-0.048
Mof_C 	C 	0.6715	0.8295	0.7105	0.03
Mof_C 	C 	0.6805	0.7497	0.6356	-0.014
Mof_C 	C 	0.7485	0.6807	0.6362	-0.016
Mof_H 	H 	0.6517	0.8496	0.7437	0.025
Mof_C 	C 	0.7308	0.7695	0.6111	-0.038
Mof_H 	H 	0.6666	0.7164	0.6188	0.054
Mof_H 	H 	0.7148	0.6675	0.6198	0.056
Mof_N 	N 	0.3875	0.6314	0.7566	0.269
Mof_H 	H 	0.3593	0.612	0.7686	-0.299
Mof_H 	H 	0.3957	0.6608	0.7799	0.389
Mof_C 	C 	0.4187	0.616	0.7015	-0.033
Mof_C 	C 	0.4043	0.5704	0.6677	0.054
Mof_O 	O 	0.2662	0.4402	0.6607	-0.132
Mof_O 	O 	0.0605	0.2326	0.6623	-0.124
Mof_C 	C 	0.1968	0.3732	0.6549	-0.029
Mof_C 	C 	0.205	0.3649	0.5832	0.015
Mof_H 	H 	0.2314	0.3854	0.5592	0.047
Mof_C 	C 	0.1737	0.3257	0.5475	-0.113
Mof_C 	C 	0.1343	0.2949	0.5834	0.014
Mof_H 	H 	0.1133	0.2687	0.5594	0.046
Mof_C 	C 	0.1261	0.3033	0.6551	-0.026
Mof_C 	C 	0.1573	0.3425	0.6909	-0.011
Mof_H 	H 	0.1518	0.3481	0.7389	0.029
Mof_N 	N 	0.9891	0.0815	0.5846	-0.134
Mof_N 	N 	0.0807	0.9892	0.584	-0.136
Mof_C 	C 	0.0017	0.1278	0.6219	0.039
Mof_C 	C 	0.9426	0.0574	0.6101	0.105
Mof_C 	C 	0.1261	0.003	0.6192	0.037
Mof_N 	N 	0.9668	0.1414	0.676	-0.114
Mof_H 	H 	0.0325	0.1491	0.6112	0.046
Mof_C 	C 	0.9279	0.0951	0.668	0.004
Mof_N 	N 	0.1407	0.9674	0.6746	-0.115
Mof_H 	H 	0.1468	0.0341	0.6079	0.045
Mof_C 	C 	0.8832	0.0827	0.7046	-0.04
Mof_O 	O 	0.07	0.2801	0.7561	-0.27
Mof_O 	O 	0.0801	0.2109	0.6897	-0.266
Mof_N 	N 	0.8682	0.1116	0.7622	0.196
Mof_O 	O 	0.2806	0.9303	0.743	-0.24
Mof_O 	O 	0.2125	0.92	0.8129	-0.231
Mof_C 	C 	0.0904	0.2622	0.7012	0.35
Mof_H 	H 	0.888	0.139	0.776	-0.535
Mof_H 	H 	0.8389	0.1026	0.785	0.221
Mof_C 	C 	0.2628	0.0899	0.6995	0.337
Mof_C 	C 	0.1508	0.2797	0.6853	-0.054
Mof_C 	C 	0.2781	0.1507	0.6859	-0.047
Mof_C 	C 	0.1715	0.3295	0.7105	0.036
Mof_C 	C 	0.1805	0.2497	0.6356	-0.017
Mof_C 	C 	0.2485	0.1807	0.6362	-0.019
Mof_H 	H 	0.1517	0.3496	0.7437	0.023
Mof_C 	C 	0.2308	0.2695	0.6111	-0.036
Mof_H 	H 	0.1666	0.2164	0.6188	0.055
Mof_H 	H 	0.2148	0.1675	0.6198	0.056
Mof_N 	N 	0.8875	0.1314	0.7566	0.268
Mof_H 	H 	0.8593	0.112	0.7686	-0.298
Mof_H 	H 	0.8957	0.1608	0.7799	0.391
Mof_C 	C 	0.9187	0.116	0.7015	-0.025
Mof_C 	C 	0.9043	0.0704	0.6677	0.062
Mof_O 	O 	0.7662	0.9402	0.6607	-0.124
Mof_O 	O 	0.5605	0.7326	0.6623	-0.12
Mof_C 	C 	0.6968	0.8732	0.6549	-0.022
Mof_C 	C 	0.705	0.8649	0.5832	0.007
Mof_H 	H 	0.7314	0.8854	0.5592	0.052
Mof_C 	C 	0.6737	0.8257	0.5475	-0.099
Mof_C 	C 	0.6343	0.7949	0.5834	0.006
Mof_H 	H 	0.6133	0.7687	0.5594	0.051
Mof_C 	C 	0.6261	0.8033	0.6551	-0.019
Mof_C 	C 	0.6573	0.8425	0.6909	-0.008
Mof_H 	H 	0.6518	0.8481	0.7389	0.031
Mof_N 	N 	0.5109	0.4185	0.5846	-0.151
Mof_N 	N 	0.4193	0.5108	0.584	-0.154
Mof_C 	C 	0.4983	0.3722	0.6219	0.079
Mof_C 	C 	0.5574	0.4426	0.6101	0.104
Mof_C 	C 	0.3739	0.497	0.6192	0.078
Mof_N 	N 	0.5332	0.3586	0.676	-0.132
Mof_H 	H 	0.4675	0.3509	0.6112	0.035
Mof_C 	C 	0.5721	0.4049	0.668	0.014
Mof_N 	N 	0.3593	0.5326	0.6746	-0.133
Mof_H 	H 	0.3532	0.4659	0.6079	0.034
Mof_C 	C 	0.6168	0.4173	0.7046	-0.035
Mof_O 	O 	0.43	0.2199	0.7561	-0.267
Mof_O 	O 	0.4199	0.2891	0.6897	-0.267
Mof_N 	N 	0.6318	0.3884	0.7622	0.195
Mof_O 	O 	0.2194	0.5697	0.743	-0.251
Mof_O 	O 	0.2875	0.58	0.8129	-0.232
Mof_C 	C 	0.4096	0.2378	0.7012	0.349
Mof_H 	H 	0.612	0.361	0.776	-0.533
Mof_H 	H 	0.6611	0.3974	0.785	0.222
Mof_C 	C 	0.2372	0.4101	0.6995	0.336
Mof_C 	C 	0.3492	0.2203	0.6853	-0.055
Mof_C 	C 	0.2219	0.3493	0.6859	-0.047
Mof_C 	C 	0.3285	0.1705	0.7105	0.036
Mof_C 	C 	0.3195	0.2503	0.6356	-0.017
Mof_C 	C 	0.2515	0.3193	0.6362	-0.019
Mof_H 	H 	0.3483	0.1504	0.7437	0.023
Mof_C 	C 	0.2692	0.2305	0.6111	-0.036
Mof_H 	H 	0.3334	0.2836	0.6188	0.055
Mof_H 	H 	0.2852	0.3325	0.6198	0.057
Mof_N 	N 	0.6125	0.3686	0.7566	0.269
Mof_H 	H 	0.6407	0.388	0.7686	-0.299
Mof_H 	H 	0.6043	0.3392	0.7799	0.389
Mof_C 	C 	0.5813	0.384	0.7015	-0.033
Mof_C 	C 	0.5957	0.4296	0.6677	0.055
Mof_O 	O 	0.7338	0.5598	0.6607	-0.131
Mof_O 	O 	0.9395	0.7674	0.6623	-0.113
Mof_C 	C 	0.8032	0.6268	0.6549	-0.024
Mof_C 	C 	0.795	0.6351	0.5832	0.008
Mof_H 	H 	0.7686	0.6146	0.5592	0.051
Mof_C 	C 	0.8263	0.6743	0.5475	-0.099
Mof_C 	C 	0.8657	0.7051	0.5834	0.005
Mof_H 	H 	0.8867	0.7313	0.5594	0.052
Mof_C 	C 	0.8739	0.6967	0.6551	-0.017
Mof_C 	C 	0.8427	0.6575	0.6909	-0.007
Mof_H 	H 	0.8482	0.6519	0.7389	0.031
Mof_N 	N 	0.0109	0.9185	0.5846	-0.169
Mof_N 	N 	0.9193	0.0108	0.584	-0.172
Mof_C 	C 	0.9983	0.8722	0.6219	0.121
Mof_C 	C 	0.0574	0.9426	0.6101	0.104
Mof_C 	C 	0.8739	0.997	0.6192	0.119
Mof_N 	N 	0.0332	0.8586	0.676	-0.146
Mof_H 	H 	0.9675	0.8509	0.6112	0.025
Mof_C 	C 	0.0721	0.9049	0.668	0.022
Mof_N 	N 	0.8593	0.0326	0.6746	-0.147
Mof_H 	H 	0.8532	0.9659	0.6079	0.024
Mof_C 	C 	0.1168	0.9173	0.7046	-0.028
Mof_O 	O 	0.93	0.7199	0.7561	-0.255
Mof_O 	O 	0.9199	0.7891	0.6897	-0.265
Mof_N 	N 	0.1318	0.8884	0.7622	0.194
Mof_O 	O 	0.7194	0.0697	0.743	-0.254
Mof_O 	O 	0.7875	0.08	0.8129	-0.231
Mof_C 	C 	0.9096	0.7378	0.7012	0.345
Mof_H 	H 	0.112	0.861	0.776	-0.532
Mof_H 	H 	0.1611	0.8974	0.785	0.224
Mof_C 	C 	0.7372	0.9101	0.6995	0.332
Mof_C 	C 	0.8492	0.7203	0.6853	-0.056
Mof_C 	C 	0.7219	0.8493	0.6859	-0.048
Mof_C 	C 	0.8285	0.6705	0.7105	0.03
Mof_C 	C 	0.8195	0.7503	0.6356	-0.014
Mof_C 	C 	0.7515	0.8193	0.6362	-0.016
Mof_H 	H 	0.8483	0.6504	0.7437	0.025
Mof_C 	C 	0.7692	0.7305	0.6111	-0.038
Mof_H 	H 	0.8334	0.7836	0.6188	0.054
Mof_H 	H 	0.7852	0.8325	0.6198	0.056
Mof_N 	N 	0.1125	0.8686	0.7566	0.269
Mof_H 	H 	0.1407	0.888	0.7686	-0.3
Mof_H 	H 	0.1043	0.8392	0.7799	0.387
Mof_C 	C 	0.0813	0.884	0.7015	-0.039
Mof_C 	C 	0.0957	0.9296	0.6677	0.046
Mof_O 	O 	0.2338	0.0598	0.6607	-0.136
Mof_O 	O 	0.4395	0.2674	0.6623	-0.121
Mof_C 	C 	0.3032	0.1268	0.6549	-0.03
Mof_C 	C 	0.295	0.1351	0.5832	0.016
Mof_H 	H 	0.2686	0.1146	0.5592	0.046
Mof_C 	C 	0.3263	0.1743	0.5475	-0.113
Mof_C 	C 	0.3657	0.2051	0.5834	0.014
Mof_H 	H 	0.3867	0.2313	0.5594	0.047
Mof_C 	C 	0.3739	0.1967	0.6551	-0.025
Mof_C 	C 	0.3427	0.1575	0.6909	-0.011
Mof_H 	H 	0.3482	0.1519	0.7389	0.029
Mof_N 	N 	0.5109	0.5815	0.9154	-0.148
Mof_N 	N 	0.4193	0.4892	0.916	-0.151
Mof_C 	C 	0.4983	0.6278	0.8781	0.081
Mof_C 	C 	0.5574	0.5574	0.8899	0.106
Mof_C 	C 	0.3739	0.503	0.8808	0.079
Mof_N 	N 	0.5332	0.6414	0.824	-0.131
Mof_H 	H 	0.4675	0.6491	0.8888	0.037
Mof_C 	C 	0.5721	0.5951	0.832	0.014
Mof_N 	N 	0.3593	0.4674	0.8254	-0.133
Mof_H 	H 	0.3532	0.5341	0.8921	0.036
Mof_C 	C 	0.6168	0.5827	0.7954	-0.034
Mof_O 	O 	0.43	0.7801	0.7439	-0.264
Mof_O 	O 	0.4199	0.7109	0.8103	-0.266
Mof_N 	N 	0.6318	0.6116	0.7378	0.195
Mof_O 	O 	0.2194	0.4303	0.757	-0.252
Mof_O 	O 	0.2875	0.42	0.6871	-0.233
Mof_C 	C 	0.4096	0.7622	0.7988	0.345
Mof_H 	H 	0.612	0.639	0.724	-0.533
Mof_H 	H 	0.6611	0.6026	0.715	0.222
Mof_C 	C 	0.2372	0.5899	0.8005	0.333
Mof_C 	C 	0.3492	0.7797	0.8147	-0.062
Mof_C 	C 	0.2219	0.6507	0.8141	-0.051
Mof_C 	C 	0.3285	0.8295	0.7895	0.003
Mof_C 	C 	0.3195	0.7497	0.8644	-0
Mof_C 	C 	0.2515	0.6807	0.8638	-0.008
Mof_H 	H 	0.3483	0.8496	0.7563	0.026
Mof_C 	C 	0.2692	0.7695	0.8889	-0.052
Mof_H 	H 	0.3334	0.7164	0.8812	0.051
Mof_H 	H 	0.2852	0.6675	0.8802	0.054
Mof_N 	N 	0.6125	0.6314	0.7434	0.268
Mof_H 	H 	0.6407	0.612	0.7314	-0.299
Mof_H 	H 	0.6043	0.6608	0.7201	0.389
Mof_C 	C 	0.5813	0.616	0.7985	-0.032
Mof_C 	C 	0.5957	0.5704	0.8323	0.054
Mof_O 	O 	0.7338	0.4402	0.8393	-0.13
Mof_O 	O 	0.9395	0.2326	0.8377	-0.112
Mof_C 	C 	0.8032	0.3732	0.8451	-0.009
Mof_C 	C 	0.795	0.3649	0.9168	-0.036
Mof_H 	H 	0.7686	0.3854	0.9408	0.069
Mof_C 	C 	0.8263	0.3257	0.9525	-0.024
Mof_C 	C 	0.8657	0.2949	0.9166	-0.038
Mof_H 	H 	0.8867	0.2687	0.9406	0.07
Mof_C 	C 	0.8739	0.3033	0.8449	-0.003
Mof_C 	C 	0.8427	0.3425	0.8091	0.012
Mof_H 	H 	0.8482	0.3481	0.7611	0.032
Mof_N 	N 	0.0109	0.0815	0.9154	-0.168
Mof_N 	N 	0.9193	0.9892	0.916	-0.13
Mof_C 	C 	0.9983	0.1278	0.8781	0.12
Mof_C 	C 	0.0574	0.0574	0.8899	0.102
Mof_C 	C 	0.8739	0.003	0.8808	0.04
Mof_N 	N 	0.0332	0.1414	0.824	-0.146
Mof_H 	H 	0.9675	0.1491	0.8888	0.027
Mof_C 	C 	0.0721	0.0951	0.832	0.01
Mof_N 	N 	0.8593	0.9674	0.8254	-0.115
Mof_H 	H 	0.8532	0.0341	0.8921	0.047
Mof_C 	C 	0.1168	0.0827	0.7954	-0.032
Mof_O 	O 	0.93	0.2801	0.7439	-0.256
Mof_O 	O 	0.9199	0.2109	0.8103	-0.265
Mof_N 	N 	0.1318	0.1116	0.7378	0.196
Mof_O 	O 	0.7194	0.9303	0.757	-0.24
Mof_O 	O 	0.7875	0.92	0.6871	-0.231
Mof_C 	C 	0.9096	0.2622	0.7988	0.343
Mof_H 	H 	0.112	0.139	0.724	-0.536
Mof_H 	H 	0.1611	0.1026	0.715	0.221
Mof_C 	C 	0.7372	0.0899	0.8005	0.334
Mof_C 	C 	0.8492	0.2797	0.8147	-0.063
Mof_C 	C 	0.7219	0.1507	0.8141	-0.05
Mof_C 	C 	0.8285	0.3295	0.7895	0.003
Mof_C 	C 	0.8195	0.2497	0.8644	-0
Mof_C 	C 	0.7515	0.1807	0.8638	-0.008
Mof_H 	H 	0.8483	0.3496	0.7563	0.027
Mof_C 	C 	0.7692	0.2695	0.8889	-0.052
Mof_H 	H 	0.8334	0.2164	0.8812	0.051
Mof_H 	H 	0.7852	0.1675	0.8802	0.054
Mof_N 	N 	0.1125	0.1314	0.7434	0.269
Mof_H 	H 	0.1407	0.112	0.7314	-0.301
Mof_H 	H 	0.1043	0.1608	0.7201	0.389
Mof_C 	C 	0.0813	0.116	0.7985	-0.031
Mof_C 	C 	0.0957	0.0704	0.8323	0.048
Mof_O 	O 	0.2338	0.9402	0.8393	-0.123
Mof_O 	O 	0.4395	0.7326	0.8377	-0.119
Mof_C 	C 	0.3032	0.8732	0.8451	-0.007
Mof_C 	C 	0.295	0.8649	0.9168	-0.036
Mof_H 	H 	0.2686	0.8854	0.9408	0.07
Mof_C 	C 	0.3263	0.8257	0.9525	-0.024
Mof_C 	C 	0.3657	0.7949	0.9166	-0.038
Mof_H 	H 	0.3867	0.7687	0.9406	0.069
Mof_C 	C 	0.3739	0.8033	0.8449	-0.005
Mof_C 	C 	0.3427	0.8425	0.8091	0.012
Mof_H 	H 	0.3482	0.8481	0.7611	0.032
Mof_N 	N 	0.4891	0.4185	0.9154	-0.148
Mof_N 	N 	0.5807	0.5108	0.916	-0.151
Mof_C 	C 	0.5017	0.3722	0.8781	0.08
Mof_C 	C 	0.4426	0.4426	0.8899	0.105
Mof_C 	C 	0.6261	0.497	0.8808	0.079
Mof_N 	N 	0.4668	0.3586	0.824	-0.131
Mof_H 	H 	0.5325	0.3509	0.8888	0.037
Mof_C 	C 	0.4279	0.4049	0.832	0.014
Mof_N 	N 	0.6407	0.5326	0.8254	-0.133
Mof_H 	H 	0.6468	0.4659	0.8921	0.036
Mof_C 	C 	0.3832	0.4173	0.7954	-0.035
Mof_O 	O 	0.57	0.2199	0.7439	-0.267
Mof_O 	O 	0.5801	0.2891	0.8103	-0.266
Mof_N 	N 	0.3682	0.3884	0.7378	0.195
Mof_O 	O 	0.7806	0.5697	0.757	-0.248
Mof_O 	O 	0.7125	0.58	0.6871	-0.233
Mof_C 	C 	0.5904	0.2378	0.7988	0.346
Mof_H 	H 	0.388	0.361	0.724	-0.533
Mof_H 	H 	0.3389	0.3974	0.715	0.221
Mof_C 	C 	0.7628	0.4101	0.8005	0.332
Mof_C 	C 	0.6508	0.2203	0.8147	-0.059
Mof_C 	C 	0.7781	0.3493	0.8141	-0.053
Mof_C 	C 	0.6715	0.1705	0.7895	0.011
Mof_C 	C 	0.6805	0.2503	0.8644	-0.005
Mof_C 	C 	0.7485	0.3193	0.8638	-0.003
Mof_H 	H 	0.6517	0.1504	0.7563	0.025
Mof_C 	C 	0.7308	0.2305	0.8889	-0.047
Mof_H 	H 	0.6666	0.2836	0.8812	0.052
Mof_H 	H 	0.7148	0.3325	0.8802	0.053
Mof_N 	N 	0.3875	0.3686	0.7434	0.269
Mof_H 	H 	0.3593	0.388	0.7314	-0.299
Mof_H 	H 	0.3957	0.3392	0.7201	0.388
Mof_C 	C 	0.4187	0.384	0.7985	-0.033
Mof_C 	C 	0.4043	0.4296	0.8323	0.054
Mof_O 	O 	0.2662	0.5598	0.8393	-0.131
Mof_O 	O 	0.0605	0.7674	0.8377	-0.123
Mof_C 	C 	0.1968	0.6268	0.8451	-0.016
Mof_C 	C 	0.205	0.6351	0.9168	-0.026
Mof_H 	H 	0.2314	0.6146	0.9408	0.065
Mof_C 	C 	0.1737	0.6743	0.9525	-0.042
Mof_C 	C 	0.1343	0.7051	0.9166	-0.027
Mof_H 	H 	0.1133	0.7313	0.9406	0.063
Mof_C 	C 	0.1261	0.6967	0.8449	-0.013
Mof_C 	C 	0.1573	0.6575	0.8091	0.007
Mof_H 	H 	0.1518	0.6519	0.7611	0.03
Mof_N 	N 	0.9891	0.9185	0.9154	-0.129
Mof_N 	N 	0.0807	0.0108	0.916	-0.171
Mof_C 	C 	0.0017	0.8722	0.8781	0.042
Mof_C 	C 	0.9426	0.9426	0.8899	0.111
Mof_C 	C 	0.1261	0.997	0.8808	0.119
Mof_N 	N 	0.9668	0.8586	0.824	-0.113
Mof_H 	H 	0.0325	0.8509	0.8888	0.048
Mof_C 	C 	0.9279	0.9049	0.832	0.017
Mof_N 	N 	0.1407	0.0326	0.8254	-0.147
Mof_H 	H 	0.1468	0.9659	0.8921	0.026
Mof_C 	C 	0.8832	0.9173	0.7954	-0.035
Mof_O 	O 	0.07	0.7199	0.7439	-0.269
Mof_O 	O 	0.0801	0.7891	0.8103	-0.264
Mof_N 	N 	0.8682	0.8884	0.7378	0.195
Mof_O 	O 	0.2806	0.0697	0.757	-0.255
Mof_O 	O 	0.2125	0.08	0.6871	-0.232
Mof_C 	C 	0.0904	0.7378	0.7988	0.347
Mof_H 	H 	0.888	0.861	0.724	-0.53
Mof_H 	H 	0.8389	0.8974	0.715	0.223
Mof_C 	C 	0.2628	0.9101	0.8005	0.33
Mof_C 	C 	0.1508	0.7203	0.8147	-0.059
Mof_C 	C 	0.2781	0.8493	0.8141	-0.054
Mof_C 	C 	0.1715	0.6705	0.7895	0.011
Mof_C 	C 	0.1805	0.7503	0.8644	-0.005
Mof_C 	C 	0.2485	0.8193	0.8638	-0.003
Mof_H 	H 	0.1517	0.6504	0.7563	0.025
Mof_C 	C 	0.2308	0.7305	0.8889	-0.047
Mof_H 	H 	0.1666	0.7836	0.8812	0.052
Mof_H 	H 	0.2148	0.8325	0.8802	0.053
Mof_N 	N 	0.8875	0.8686	0.7434	0.267
Mof_H 	H 	0.8593	0.888	0.7314	-0.297
Mof_H 	H 	0.8957	0.8392	0.7201	0.389
Mof_C 	C 	0.9187	0.884	0.7985	-0.032
Mof_C 	C 	0.9043	0.9296	0.8323	0.059
Mof_O 	O 	0.7662	0.0598	0.8393	-0.134
Mof_O 	O 	0.5605	0.2674	0.8377	-0.12
Mof_C 	C 	0.6968	0.1268	0.8451	-0.017
Mof_C 	C 	0.705	0.1351	0.9168	-0.025
Mof_H 	H 	0.7314	0.1146	0.9408	0.064
Mof_C 	C 	0.6737	0.1743	0.9525	-0.042
Mof_C 	C 	0.6343	0.2051	0.9166	-0.028
Mof_H 	H 	0.6133	0.2313	0.9406	0.064
Mof_C 	C 	0.6261	0.1967	0.8449	-0.011
Mof_C 	C 	0.6573	0.1575	0.8091	0.007
Mof_H 	H 	0.6518	0.1519	0.7611	0.03
Mof_Cd	Cd	0.44819	0.44758	0.5	0.395
Mof_Br	Br	0.62677	0.62763	0.5	-0.29
Mof_H 	H 	0.8208	0.6799	0.5	0.122
Mof_Cd	Cd	0.94819	0.94758	0.5	0.42
Mof_Br	Br	0.12677	0.12763	0.5	-0.293
Mof_H 	H 	0.3208	0.1799	0.5	0.133
Mof_Cd	Cd	0.55181	0.55242	0.5	0.395
Mof_Br	Br	0.37323	0.37237	0.5	-0.29
Mof_H 	H 	0.1792	0.3201	0.5	0.133
Mof_Cd	Cd	0.05181	0.05242	0.5	0.369
Mof_Br	Br	0.87323	0.87237	0.5	-0.287
Mof_H 	H 	0.6792	0.8201	0.5	0.123
Mof_Cd	Cd	0.55181	0.44758	-0	0.387
Mof_Br	Br	0.37323	0.62763	-0	-0.299
Mof_H 	H 	0.1792	0.6799	-0	0.081
Mof_Cd	Cd	0.05181	0.94758	-0	0.387
Mof_Br	Br	0.87323	0.12763	-0	-0.299
Mof_H 	H 	0.6792	0.1799	-0	0.08
Mof_Cd	Cd	0.44819	0.55242	-0	0.387
Mof_Br	Br	0.62677	0.37237	-0	-0.299
Mof_H 	H 	0.8208	0.3201	-0	0.067
Mof_Cd	Cd	0.94819	0.05242	-0	0.387
Mof_Br	Br	0.12677	0.87237	-0	-0.299
Mof_H 	H 	0.3208	0.8201	-0	0.067
Mof_Cd	Cd	0.5	0.28989	0.25	0.452
Mof_Cd	Cd	7.34778e-34	0.78989	0.25	0.433
Mof_Cd	Cd	0.5	0.71011	0.25	0.453
Mof_Cd	Cd	-1.5364e-33	0.21011	0.25	0.432
Mof_Cd	Cd	0.5	0.71011	0.75	0.453
Mof_Cd	Cd	2.20433e-33	0.21011	0.75	0.433
Mof_Cd	Cd	0.5	0.28989	0.75	0.452
Mof_Cd	Cd	2.20433e-33	0.78989	0.75	0.434
Mof_Cd	Cd	0.29072	0.5	0.25	0.454
Mof_Cd	Cd	0.79072	0	0.25	0.435
Mof_Cd	Cd	0.70928	0.5	0.25	0.455
Mof_Cd	Cd	0.20928	0	0.25	0.434
Mof_Cd	Cd	0.70928	0.5	0.75	0.456
Mof_Cd	Cd	0.20928	0	0.75	0.435
Mof_Cd	Cd	0.29072	0.5	0.75	0.455
Mof_Cd	Cd	0.79072	0	0.75	0.436
Mof_H 	H 	0.75	0.75	0.4233	0.07
Mof_H 	H 	0.25	0.25	0.4233	0.068
Mof_H 	H 	0.25	0.75	0.0767	0.072
Mof_H 	H 	0.75	0.25	0.0767	0.072
Mof_H 	H 	0.25	0.25	0.5767	0.068
Mof_H 	H 	0.75	0.75	0.5767	0.069
Mof_H 	H 	0.75	0.25	0.9233	0.078
Mof_H 	H 	0.25	0.75	0.9233	0.078
_end
