data_functionalizedCrystal
_audit_creation_method	'EQeq! by Chris Wilmer'
_symmetry_space_group_name_H-M	'P1'
_symmetry_Int_Tables_number	1
_symmetry_cell_setting	triclinic
loop_
_symmetry_equiv_pos_as_xyz
  x,y,z
_cell_length_a	16.9615
_cell_length_b	16.9615
_cell_length_c	16.9615
_cell_angle_alpha	90
_cell_angle_beta	90
_cell_angle_gamma	90
loop_
_atom_site_label
_atom_site_type_symbol
_atom_site_fract_x
_atom_site_fract_y
_atom_site_fract_z
_atom_site_charge
Mof_N 	N 	0.18189	0.90897	0.52666	-0.269
Mof_H 	H 	0.0927	0.8425	0.3729	0.015
Mof_H 	H 	0.0406	0.9615	0.3368	0.044
Mof_H 	H 	0.0039	0.9328	0.4166	0.08
Mof_C 	C 	0.17797	0.87592	0.60003	0.014
Mof_N 	N 	0.68189	0.40897	0.02666	-0.368
Mof_H 	H 	0.5927	0.3425	0.8729	0.086
Mof_H 	H 	0.5406	0.4615	0.8368	0.026
Mof_H 	H 	0.5039	0.4328	0.9166	0.065
Mof_C 	C 	0.67797	0.37592	0.10003	-0.017
Mof_N 	N 	0.81811	0.09103	0.52666	-0.301
Mof_H 	H 	0.9073	0.1575	0.3729	0.033
Mof_H 	H 	0.9594	0.0385	0.3368	0.045
Mof_H 	H 	0.9961	0.0672	0.4166	0.119
Mof_C 	C 	0.82203	0.12408	0.60003	-0.029
Mof_N 	N 	0.31811	0.59103	0.02666	-0.37
Mof_H 	H 	0.4073	0.6575	0.8729	0.085
Mof_H 	H 	0.4594	0.5385	0.8368	0.025
Mof_H 	H 	0.4961	0.5672	0.9166	0.063
Mof_C 	C 	0.32203	0.62408	0.10003	-0.028
Mof_N 	N 	0.81811	0.90897	0.47334	-0.244
Mof_H 	H 	0.9073	0.8425	0.6271	-0.122
Mof_H 	H 	0.9594	0.9615	0.6632	0.185
Mof_H 	H 	0.9961	0.9328	0.5834	0.434
Mof_C 	C 	0.82203	0.87592	0.39997	0.011
Mof_N 	N 	0.31811	0.40897	0.97334	-0.202
Mof_H 	H 	0.4073	0.3425	0.1271	-0.035
Mof_H 	H 	0.4594	0.4615	0.1632	0.067
Mof_H 	H 	0.4961	0.4328	0.0834	0.136
Mof_C 	C 	0.32203	0.37592	0.89997	-0.006
Mof_N 	N 	0.18189	0.09103	0.47334	-0.328
Mof_H 	H 	0.0927	0.1575	0.6271	0.184
Mof_H 	H 	0.0406	0.0385	0.6632	-0.091
Mof_H 	H 	0.0039	0.0672	0.5834	-0.238
Mof_C 	C 	0.17797	0.12408	0.39997	-0.038
Mof_N 	N 	0.68189	0.59103	0.97334	-0.202
Mof_H 	H 	0.5927	0.6575	0.1271	-0.028
Mof_H 	H 	0.5406	0.5385	0.1632	0.065
Mof_H 	H 	0.5039	0.5672	0.0834	0.129
Mof_C 	C 	0.67797	0.62408	0.89997	0.008
Mof_N 	N 	0.52666	0.18189	0.90897	-0.27
Mof_H 	H 	0.3729	0.0927	0.8425	0.014
Mof_H 	H 	0.3368	0.0406	0.9615	0.043
Mof_H 	H 	0.4166	0.0039	0.9328	0.079
Mof_C 	C 	0.60003	0.17797	0.87592	0.013
Mof_N 	N 	0.02666	0.68189	0.40897	-0.369
Mof_H 	H 	0.8729	0.5927	0.3425	0.085
Mof_H 	H 	0.8368	0.5406	0.4615	0.025
Mof_H 	H 	0.9166	0.5039	0.4328	0.064
Mof_C 	C 	0.10003	0.67797	0.37592	-0.018
Mof_N 	N 	0.52666	0.81811	0.09103	-0.302
Mof_H 	H 	0.3729	0.9073	0.1575	0.032
Mof_H 	H 	0.3368	0.9594	0.0385	0.045
Mof_H 	H 	0.4166	0.9961	0.0672	0.119
Mof_C 	C 	0.60003	0.82203	0.12408	-0.029
Mof_N 	N 	0.02666	0.31811	0.59103	-0.37
Mof_H 	H 	0.8729	0.4073	0.6575	0.085
Mof_H 	H 	0.8368	0.4594	0.5385	0.025
Mof_H 	H 	0.9166	0.4961	0.5672	0.063
Mof_C 	C 	0.10003	0.32203	0.62408	-0.028
Mof_N 	N 	0.47334	0.81811	0.90897	-0.244
Mof_H 	H 	0.6271	0.9073	0.8425	-0.122
Mof_H 	H 	0.6632	0.9594	0.9615	0.185
Mof_H 	H 	0.5834	0.9961	0.9328	0.434
Mof_C 	C 	0.39997	0.82203	0.87592	0.011
Mof_N 	N 	0.97334	0.31811	0.40897	-0.202
Mof_H 	H 	0.1271	0.4073	0.3425	-0.035
Mof_H 	H 	0.1632	0.4594	0.4615	0.067
Mof_H 	H 	0.0834	0.4961	0.4328	0.136
Mof_C 	C 	0.89997	0.32203	0.37592	-0.006
Mof_N 	N 	0.47334	0.18189	0.09103	-0.328
Mof_H 	H 	0.6271	0.0927	0.1575	0.184
Mof_H 	H 	0.6632	0.0406	0.0385	-0.091
Mof_H 	H 	0.5834	0.0039	0.0672	-0.238
Mof_C 	C 	0.39997	0.17797	0.12408	-0.038
Mof_N 	N 	0.97334	0.68189	0.59103	-0.202
Mof_H 	H 	0.1271	0.5927	0.6575	-0.028
Mof_H 	H 	0.1632	0.5406	0.5385	0.065
Mof_H 	H 	0.0834	0.5039	0.5672	0.129
Mof_C 	C 	0.89997	0.67797	0.62408	0.008
Mof_N 	N 	0.90897	0.52666	0.18189	-0.27
Mof_H 	H 	0.8425	0.3729	0.0927	0.014
Mof_H 	H 	0.9615	0.3368	0.0406	0.043
Mof_H 	H 	0.9328	0.4166	0.0039	0.079
Mof_C 	C 	0.87592	0.60003	0.17797	0.013
Mof_N 	N 	0.40897	0.02666	0.68189	-0.369
Mof_H 	H 	0.3425	0.8729	0.5927	0.085
Mof_H 	H 	0.4615	0.8368	0.5406	0.025
Mof_H 	H 	0.4328	0.9166	0.5039	0.064
Mof_C 	C 	0.37592	0.10003	0.67797	-0.018
Mof_N 	N 	0.09103	0.52666	0.81811	-0.302
Mof_H 	H 	0.1575	0.3729	0.9073	0.032
Mof_H 	H 	0.0385	0.3368	0.9594	0.045
Mof_H 	H 	0.0672	0.4166	0.9961	0.119
Mof_C 	C 	0.12408	0.60003	0.82203	-0.029
Mof_N 	N 	0.59103	0.02666	0.31811	-0.37
Mof_H 	H 	0.6575	0.8729	0.4073	0.085
Mof_H 	H 	0.5385	0.8368	0.4594	0.025
Mof_H 	H 	0.5672	0.9166	0.4961	0.063
Mof_C 	C 	0.62408	0.10003	0.32203	-0.028
Mof_N 	N 	0.90897	0.47334	0.81811	-0.244
Mof_H 	H 	0.8425	0.6271	0.9073	-0.122
Mof_H 	H 	0.9615	0.6632	0.9594	0.185
Mof_H 	H 	0.9328	0.5834	0.9961	0.434
Mof_C 	C 	0.87592	0.39997	0.82203	0.011
Mof_N 	N 	0.40897	0.97334	0.31811	-0.202
Mof_H 	H 	0.3425	0.1271	0.4073	-0.035
Mof_H 	H 	0.4615	0.1632	0.4594	0.067
Mof_H 	H 	0.4328	0.0834	0.4961	0.136
Mof_C 	C 	0.37592	0.89997	0.32203	-0.006
Mof_N 	N 	0.09103	0.47334	0.18189	-0.328
Mof_H 	H 	0.1575	0.6271	0.0927	0.184
Mof_H 	H 	0.0385	0.6632	0.0406	-0.091
Mof_H 	H 	0.0672	0.5834	0.0039	-0.238
Mof_C 	C 	0.12408	0.39997	0.17797	-0.038
Mof_N 	N 	0.59103	0.97334	0.68189	-0.202
Mof_H 	H 	0.6575	0.1271	0.5927	-0.028
Mof_H 	H 	0.5385	0.1632	0.5406	0.065
Mof_H 	H 	0.5672	0.0834	0.5039	0.129
Mof_C 	C 	0.62408	0.89997	0.67797	0.008
Mof_N 	N 	0.90897	0.18189	0.52666	-0.27
Mof_H 	H 	0.8425	0.0927	0.3729	0.014
Mof_H 	H 	0.9615	0.0406	0.3368	0.043
Mof_H 	H 	0.9328	0.0039	0.4166	0.079
Mof_C 	C 	0.87592	0.17797	0.60003	0.013
Mof_N 	N 	0.40897	0.68189	0.02666	-0.369
Mof_H 	H 	0.3425	0.5927	0.8729	0.085
Mof_H 	H 	0.4615	0.5406	0.8368	0.025
Mof_H 	H 	0.4328	0.5039	0.9166	0.064
Mof_C 	C 	0.37592	0.67797	0.10003	-0.018
Mof_N 	N 	0.09103	0.81811	0.52666	-0.302
Mof_H 	H 	0.1575	0.9073	0.3729	0.032
Mof_H 	H 	0.0385	0.9594	0.3368	0.045
Mof_H 	H 	0.0672	0.9961	0.4166	0.119
Mof_C 	C 	0.12408	0.82203	0.60003	-0.029
Mof_N 	N 	0.59103	0.31811	0.02666	-0.37
Mof_H 	H 	0.6575	0.4073	0.8729	0.085
Mof_H 	H 	0.5385	0.4594	0.8368	0.025
Mof_H 	H 	0.5672	0.4961	0.9166	0.063
Mof_C 	C 	0.62408	0.32203	0.10003	-0.028
Mof_N 	N 	0.90897	0.81811	0.47334	-0.244
Mof_H 	H 	0.8425	0.9073	0.6271	-0.122
Mof_H 	H 	0.9615	0.9594	0.6632	0.185
Mof_H 	H 	0.9328	0.9961	0.5834	0.434
Mof_C 	C 	0.87592	0.82203	0.39997	0.011
Mof_N 	N 	0.40897	0.31811	0.97334	-0.202
Mof_H 	H 	0.3425	0.4073	0.1271	-0.035
Mof_H 	H 	0.4615	0.4594	0.1632	0.067
Mof_H 	H 	0.4328	0.4961	0.0834	0.136
Mof_C 	C 	0.37592	0.32203	0.89997	-0.006
Mof_N 	N 	0.09103	0.18189	0.47334	-0.328
Mof_H 	H 	0.1575	0.0927	0.6271	0.184
Mof_H 	H 	0.0385	0.0406	0.6632	-0.091
Mof_H 	H 	0.0672	0.0039	0.5834	-0.238
Mof_C 	C 	0.12408	0.17797	0.39997	-0.038
Mof_N 	N 	0.59103	0.68189	0.97334	-0.202
Mof_H 	H 	0.6575	0.5927	0.1271	-0.028
Mof_H 	H 	0.5385	0.5406	0.1632	0.065
Mof_H 	H 	0.5672	0.5039	0.0834	0.129
Mof_C 	C 	0.62408	0.67797	0.89997	0.008
Mof_N 	N 	0.18189	0.52666	0.90897	-0.27
Mof_H 	H 	0.0927	0.3729	0.8425	0.014
Mof_H 	H 	0.0406	0.3368	0.9615	0.043
Mof_H 	H 	0.0039	0.4166	0.9328	0.079
Mof_C 	C 	0.17797	0.60003	0.87592	0.013
Mof_N 	N 	0.68189	0.02666	0.40897	-0.369
Mof_H 	H 	0.5927	0.8729	0.3425	0.085
Mof_H 	H 	0.5406	0.8368	0.4615	0.025
Mof_H 	H 	0.5039	0.9166	0.4328	0.064
Mof_C 	C 	0.67797	0.10003	0.37592	-0.018
Mof_N 	N 	0.81811	0.52666	0.09103	-0.302
Mof_H 	H 	0.9073	0.3729	0.1575	0.032
Mof_H 	H 	0.9594	0.3368	0.0385	0.045
Mof_H 	H 	0.9961	0.4166	0.0672	0.119
Mof_C 	C 	0.82203	0.60003	0.12408	-0.029
Mof_N 	N 	0.31811	0.02666	0.59103	-0.37
Mof_H 	H 	0.4073	0.8729	0.6575	0.085
Mof_H 	H 	0.4594	0.8368	0.5385	0.025
Mof_H 	H 	0.4961	0.9166	0.5672	0.063
Mof_C 	C 	0.32203	0.10003	0.62408	-0.028
Mof_N 	N 	0.81811	0.47334	0.90897	-0.244
Mof_H 	H 	0.9073	0.6271	0.8425	-0.122
Mof_H 	H 	0.9594	0.6632	0.9615	0.185
Mof_H 	H 	0.9961	0.5834	0.9328	0.434
Mof_C 	C 	0.82203	0.39997	0.87592	0.011
Mof_N 	N 	0.31811	0.97334	0.40897	-0.202
Mof_H 	H 	0.4073	0.1271	0.3425	-0.035
Mof_H 	H 	0.4594	0.1632	0.4615	0.067
Mof_H 	H 	0.4961	0.0834	0.4328	0.136
Mof_C 	C 	0.32203	0.89997	0.37592	-0.006
Mof_N 	N 	0.18189	0.47334	0.09103	-0.328
Mof_H 	H 	0.0927	0.6271	0.1575	0.184
Mof_H 	H 	0.0406	0.6632	0.0385	-0.091
Mof_H 	H 	0.0039	0.5834	0.0672	-0.238
Mof_C 	C 	0.17797	0.39997	0.12408	-0.038
Mof_N 	N 	0.68189	0.97334	0.59103	-0.202
Mof_H 	H 	0.5927	0.1271	0.6575	-0.028
Mof_H 	H 	0.5406	0.1632	0.5385	0.065
Mof_H 	H 	0.5039	0.0834	0.5672	0.129
Mof_C 	C 	0.67797	0.89997	0.62408	0.008
Mof_N 	N 	0.52666	0.90897	0.18189	-0.27
Mof_H 	H 	0.3729	0.8425	0.0927	0.014
Mof_H 	H 	0.3368	0.9615	0.0406	0.043
Mof_H 	H 	0.4166	0.9328	0.0039	0.079
Mof_C 	C 	0.60003	0.87592	0.17797	0.013
Mof_N 	N 	0.02666	0.40897	0.68189	-0.369
Mof_H 	H 	0.8729	0.3425	0.5927	0.085
Mof_H 	H 	0.8368	0.4615	0.5406	0.025
Mof_H 	H 	0.9166	0.4328	0.5039	0.064
Mof_C 	C 	0.10003	0.37592	0.67797	-0.018
Mof_N 	N 	0.52666	0.09103	0.81811	-0.302
Mof_H 	H 	0.3729	0.1575	0.9073	0.032
Mof_H 	H 	0.3368	0.0385	0.9594	0.045
Mof_H 	H 	0.4166	0.0672	0.9961	0.119
Mof_C 	C 	0.60003	0.12408	0.82203	-0.029
Mof_N 	N 	0.02666	0.59103	0.31811	-0.37
Mof_H 	H 	0.8729	0.6575	0.4073	0.085
Mof_H 	H 	0.8368	0.5385	0.4594	0.025
Mof_H 	H 	0.9166	0.5672	0.4961	0.063
Mof_C 	C 	0.10003	0.62408	0.32203	-0.028
Mof_N 	N 	0.47334	0.90897	0.81811	-0.244
Mof_H 	H 	0.6271	0.8425	0.9073	-0.122
Mof_H 	H 	0.6632	0.9615	0.9594	0.185
Mof_H 	H 	0.5834	0.9328	0.9961	0.434
Mof_C 	C 	0.39997	0.87592	0.82203	0.011
Mof_N 	N 	0.97334	0.40897	0.31811	-0.202
Mof_H 	H 	0.1271	0.3425	0.4073	-0.035
Mof_H 	H 	0.1632	0.4615	0.4594	0.067
Mof_H 	H 	0.0834	0.4328	0.4961	0.136
Mof_C 	C 	0.89997	0.37592	0.32203	-0.006
Mof_N 	N 	0.47334	0.09103	0.18189	-0.328
Mof_H 	H 	0.6271	0.1575	0.0927	0.184
Mof_H 	H 	0.6632	0.0385	0.0406	-0.091
Mof_H 	H 	0.5834	0.0672	0.0039	-0.238
Mof_C 	C 	0.39997	0.12408	0.17797	-0.038
Mof_N 	N 	0.97334	0.59103	0.68189	-0.202
Mof_H 	H 	0.1271	0.6575	0.5927	-0.028
Mof_H 	H 	0.1632	0.5385	0.5406	0.065
Mof_H 	H 	0.0834	0.5672	0.5039	0.129
Mof_C 	C 	0.89997	0.62408	0.67797	0.008
Mof_Zn	Zn	0.25	-5.17318e-33	0.5	1.146
Mof_Zn	Zn	0.75	-5.17318e-33	0.5	1.146
Mof_Zn	Zn	0.5	0.25	-0	1.146
Mof_Zn	Zn	0.5	0.75	-0	1.146
Mof_Zn	Zn	-1.64924e-33	0.5	0.25	1.146
Mof_Zn	Zn	-7.53431e-33	0.5	0.75	1.146
Mof_Zn	Zn	-3.29848e-33	0.25	0.5	1.146
Mof_Zn	Zn	-8.47166e-33	0.75	0.5	1.146
Mof_Zn	Zn	0.25	0.5	-0	1.146
Mof_Zn	Zn	0.75	0.5	-0	1.146
Mof_Zn	Zn	0.5	-2.58659e-33	0.25	1.146
Mof_Zn	Zn	0.5	-5.17318e-33	0.75	1.146
Mof_C 	C 	0.12748	0.87252	0.4851	0.098
Mof_C 	C 	0.1103	0.8897	0.3987	-0.094
Mof_C 	C 	0.0512	0.9488	0.3914	-0.325
Mof_C 	C 	0.62748	0.37252	0.9851	0.293
Mof_C 	C 	0.6103	0.3897	0.8987	-0.276
Mof_C 	C 	0.5512	0.4488	0.8914	-0.158
Mof_C 	C 	0.87252	0.12748	0.4851	0.098
Mof_C 	C 	0.8897	0.1103	0.3987	-0.094
Mof_C 	C 	0.9488	0.0512	0.3914	-0.325
Mof_C 	C 	0.37252	0.62748	0.9851	0.293
Mof_C 	C 	0.3897	0.6103	0.8987	-0.276
Mof_C 	C 	0.4488	0.5512	0.8914	-0.158
Mof_C 	C 	0.87252	0.87252	0.5149	-0.034
Mof_C 	C 	0.8897	0.8897	0.6013	0.454
Mof_C 	C 	0.9488	0.9488	0.6086	-1.14
Mof_C 	C 	0.37252	0.37252	0.0149	-0.098
Mof_C 	C 	0.3897	0.3897	0.1013	0.084
Mof_C 	C 	0.4488	0.4488	0.1086	-0.493
Mof_C 	C 	0.12748	0.12748	0.5149	0.235
Mof_C 	C 	0.1103	0.1103	0.6013	-0.66
Mof_C 	C 	0.0512	0.0512	0.6086	0.501
Mof_C 	C 	0.62748	0.62748	0.0149	-0.089
Mof_C 	C 	0.6103	0.6103	0.1013	0.068
Mof_C 	C 	0.5512	0.5512	0.1086	-0.474
Mof_C 	C 	0.4851	0.12748	0.87252	0.098
Mof_C 	C 	0.3987	0.1103	0.8897	-0.094
Mof_C 	C 	0.3914	0.0512	0.9488	-0.325
Mof_C 	C 	0.9851	0.62748	0.37252	0.293
Mof_C 	C 	0.8987	0.6103	0.3897	-0.276
Mof_C 	C 	0.8914	0.5512	0.4488	-0.158
Mof_C 	C 	0.4851	0.87252	0.12748	0.098
Mof_C 	C 	0.3987	0.8897	0.1103	-0.094
Mof_C 	C 	0.3914	0.9488	0.0512	-0.325
Mof_C 	C 	0.9851	0.37252	0.62748	0.293
Mof_C 	C 	0.8987	0.3897	0.6103	-0.276
Mof_C 	C 	0.8914	0.4488	0.5512	-0.158
Mof_C 	C 	0.5149	0.87252	0.87252	-0.034
Mof_C 	C 	0.6013	0.8897	0.8897	0.454
Mof_C 	C 	0.6086	0.9488	0.9488	-1.14
Mof_C 	C 	0.0149	0.37252	0.37252	-0.098
Mof_C 	C 	0.1013	0.3897	0.3897	0.084
Mof_C 	C 	0.1086	0.4488	0.4488	-0.493
Mof_C 	C 	0.5149	0.12748	0.12748	0.235
Mof_C 	C 	0.6013	0.1103	0.1103	-0.66
Mof_C 	C 	0.6086	0.0512	0.0512	0.501
Mof_C 	C 	0.0149	0.62748	0.62748	-0.089
Mof_C 	C 	0.1013	0.6103	0.6103	0.068
Mof_C 	C 	0.1086	0.5512	0.5512	-0.474
Mof_C 	C 	0.87252	0.4851	0.12748	0.098
Mof_C 	C 	0.8897	0.3987	0.1103	-0.094
Mof_C 	C 	0.9488	0.3914	0.0512	-0.325
Mof_C 	C 	0.37252	0.9851	0.62748	0.293
Mof_C 	C 	0.3897	0.8987	0.6103	-0.276
Mof_C 	C 	0.4488	0.8914	0.5512	-0.158
Mof_C 	C 	0.12748	0.4851	0.87252	0.098
Mof_C 	C 	0.1103	0.3987	0.8897	-0.094
Mof_C 	C 	0.0512	0.3914	0.9488	-0.325
Mof_C 	C 	0.62748	0.9851	0.37252	0.293
Mof_C 	C 	0.6103	0.8987	0.3897	-0.276
Mof_C 	C 	0.5512	0.8914	0.4488	-0.158
Mof_C 	C 	0.87252	0.5149	0.87252	-0.034
Mof_C 	C 	0.8897	0.6013	0.8897	0.454
Mof_C 	C 	0.9488	0.6086	0.9488	-1.14
Mof_C 	C 	0.37252	0.0149	0.37252	-0.098
Mof_C 	C 	0.3897	0.1013	0.3897	0.084
Mof_C 	C 	0.4488	0.1086	0.4488	-0.493
Mof_C 	C 	0.12748	0.5149	0.12748	0.235
Mof_C 	C 	0.1103	0.6013	0.1103	-0.66
Mof_C 	C 	0.0512	0.6086	0.0512	0.501
Mof_C 	C 	0.62748	0.0149	0.62748	-0.089
Mof_C 	C 	0.6103	0.1013	0.6103	0.068
Mof_C 	C 	0.5512	0.1086	0.5512	-0.474
_end
