data_functionalizedCrystal
_audit_creation_method	'EQeq! by Chris Wilmer'
_symmetry_space_group_name_H-M	'P1'
_symmetry_Int_Tables_number	1
_symmetry_cell_setting	triclinic
loop_
_symmetry_equiv_pos_as_xyz
  x,y,z
_cell_length_a	37.27
_cell_length_b	10.733
_cell_length_c	38.171
_cell_angle_alpha	90
_cell_angle_beta	90
_cell_angle_gamma	90
loop_
_atom_site_label
_atom_site_type_symbol
_atom_site_fract_x
_atom_site_fract_y
_atom_site_fract_z
_atom_site_charge
Mof_Zn	Zn	0.26983	0.41304	0.18688	1.207
Mof_Zn	Zn	0.76594	0.031	0.5237	1.152
Mof_O 	O 	0.311	0.3855	0.2157	-0.467
Mof_O 	O 	0.3056	0.566	0.2367	-0.217
Mof_O 	O 	0.7226	0.3581	0.2811	-0.406
Mof_O 	O 	0.721	0.5394	0.3005	-0.418
Mof_O 	O 	0.3036	0.2384	0.4912	-0.457
Mof_O 	O 	0.3066	0.4334	0.5075	-0.504
Mof_O 	O 	0.7174	0.0707	0.4737	-0.376
Mof_O 	O 	0.7182	0.0994	0.5295	-0.76
Mof_O 	O 	0.2797	0.5265	0.1463	-0.446
Mof_O 	O 	0.2995	0.7117	0.1379	-0.284
Mof_O 	O 	0.43167	0.6572	0.1611	-0.248
Mof_O 	O 	0.5275	0.6767	0.1653	-0.208
Mof_O 	O 	0.5953	0.5506	0.1693	0.061
Mof_O 	O 	0.6139	0.3047	0.1609	-0.26
Mof_O 	O 	0.7213	0.154	0.0873	-0.226
Mof_O 	O 	0.7025	0.964	0.0678	-0.334
Mof_O 	O 	0.5745	0.9464	0.0944	-0.239
Mof_O 	O 	0.4803	0.9315	0.1044	-0.176
Mof_O 	O 	0.4075	0.0232	0.1226	-0.17
Mof_O 	O 	0.3937	0.283	0.1146	-0.163
Mof_N 	N 	0.47792	0.6275	0.31257	-0.208
Mof_H 	H 	0.4553	0.6498	0.3142	0.111
Mof_N 	N 	0.53706	0.6126	0.3226	-0.115
Mof_N 	N 	0.4756	0.0946	0.4548	-0.212
Mof_H 	H 	0.453	0.0902	0.4481	0.128
Mof_N 	N 	0.5336	0.0551	0.4572	-0.137
Mof_C 	C 	0.3219	0.476	0.2315	0.171
Mof_C 	C 	0.4349	0.4667	0.2588	0.016
Mof_C 	C 	0.4142	0.5679	0.2691	-0.047
Mof_H 	H 	0.4252	0.6364	0.2808	0.039
Mof_C 	C 	0.3776	0.5688	0.2625	-0.015
Mof_H 	H 	0.3634	0.638	0.2696	0.049
Mof_C 	C 	0.3616	0.4686	0.2455	-0.02
Mof_C 	C 	0.3823	0.3674	0.2352	-0.027
Mof_H 	H 	0.3714	0.2989	0.2236	0.042
Mof_C 	C 	0.419	0.3665	0.2418	-0.059
Mof_H 	H 	0.4331	0.2973	0.2347	0.044
Mof_C 	C 	0.4753	0.4711	0.2632	-0.034
Mof_C 	C 	0.4923	0.5441	0.2886	0.054
Mof_C 	C 	0.5289	0.5355	0.2945	0.038
Mof_C 	C 	0.5517	0.4605	0.2738	-0.026
Mof_C 	C 	0.5348	0.3908	0.2488	-0.046
Mof_H 	H 	0.5487	0.3382	0.2341	0.044
Mof_C 	C 	0.4966	0.3953	0.2443	-0.042
Mof_H 	H 	0.4859	0.3426	0.2272	0.043
Mof_C 	C 	0.5914	0.4563	0.2785	0.061
Mof_C 	C 	0.6106	0.5684	0.2842	-0.095
Mof_H 	H 	0.5984	0.6458	0.2858	0.07
Mof_C 	C 	0.648	0.5629	0.2875	0.017
Mof_H 	H 	0.661	0.6375	0.2917	0.042
Mof_C 	C 	0.6661	0.4532	0.2848	-0.07
Mof_C 	C 	0.6484	0.3439	0.28	0.01
Mof_H 	H 	0.6612	0.2673	0.2799	0.056
Mof_C 	C 	0.6099	0.3449	0.2749	-0.096
Mof_H 	H 	0.5975	0.2703	0.2693	0.071
Mof_C 	C 	0.709	0.446	0.2934	0.392
Mof_C 	C 	0.5044	0.6667	0.3324	0.112
Mof_C 	C 	0.5027	0.7524	0.3619	-0.002
Mof_C 	C 	0.4758	0.8399	0.3634	-0.058
Mof_H 	H 	0.4583	0.8409	0.3454	0.059
Mof_C 	C 	0.4734	0.9261	0.3899	-0.026
Mof_H 	H 	0.4539	0.9833	0.3906	0.054
Mof_C 	C 	0.5	0.9279	0.4156	-0.032
Mof_C 	C 	0.5267	0.8386	0.4146	-0.02
Mof_H 	H 	0.5445	0.8367	0.4324	0.052
Mof_C 	C 	0.5277	0.7514	0.3877	-0.065
Mof_H 	H 	0.5462	0.6905	0.3873	0.091
Mof_C 	C 	0.503	0.0258	0.4428	0.136
Mof_C 	C 	0.322	0.331	0.5023	0.392
Mof_C 	C 	0.3603	0.3204	0.5049	-0.214
Mof_C 	C 	0.3829	0.4171	0.5046	0.135
Mof_H 	H 	0.3732	0.4988	0.5057	-0.007
Mof_C 	C 	0.4189	0.4047	0.5028	-0.196
Mof_H 	H 	0.4338	0.4764	0.5016	0.097
Mof_C 	C 	0.4341	0.2868	0.5028	0.134
Mof_C 	C 	0.4109	0.1866	0.504	-0.194
Mof_H 	H 	0.4204	0.1045	0.504	0.106
Mof_C 	C 	0.3752	0.2025	0.5051	0.128
Mof_H 	H 	0.36	0.1317	0.5061	0.005
Mof_C 	C 	0.4739	0.265	0.501	-0.069
Mof_C 	C 	0.4979	0.3341	0.5217	-0.024
Mof_H 	H 	0.4889	0.3998	0.5359	0.041
Mof_C 	C 	0.5339	0.3093	0.5219	-0.049
Mof_H 	H 	0.5488	0.3572	0.537	0.049
Mof_C 	C 	0.5498	0.2189	0.5016	-0.039
Mof_C 	C 	0.5265	0.1505	0.4803	0.039
Mof_C 	C 	0.4898	0.1748	0.4801	0.071
Mof_C 	C 	0.5897	0.1932	0.5013	0.098
Mof_C 	C 	0.6088	0.2007	0.5327	-0.149
Mof_H 	H 	0.5974	0.2205	0.5542	0.087
Mof_C 	C 	0.6472	0.1767	0.5306	0.082
Mof_H 	H 	0.6615	0.1868	0.5511	0.012
Mof_C 	C 	0.6635	0.1399	0.5	-0.203
Mof_C 	C 	0.6427	0.1277	0.4708	0.103
Mof_H 	H 	0.6534	0.0976	0.4498	0.014
Mof_C 	C 	0.6066	0.1576	0.4707	-0.162
Mof_H 	H 	0.5934	0.1536	0.4494	0.094
Mof_C 	C 	0.7007	0.1041	0.5006	0.412
Mof_C 	C 	0.3049	0.602	0.1414	0.332
Mof_C 	C 	0.3422	0.5503	0.1418	0.029
Mof_C 	C 	0.3706	0.6279	0.1505	-0.196
Mof_H 	H 	0.3666	0.7129	0.1563	0.114
Mof_C 	C 	0.4049	0.5785	0.1505	0.269
Mof_C 	C 	0.4101	0.4522	0.1435	-0.317
Mof_H 	H 	0.4336	0.4183	0.1439	0.156
Mof_C 	C 	0.3814	0.3768	0.1362	0.299
Mof_C 	C 	0.347	0.4236	0.1349	-0.22
Mof_H 	H 	0.3272	0.3714	0.1294	0.091
Mof_C 	C 	0.4675	0.6117	0.159	0.023
Mof_H 	H 	0.4732	0.5902	0.1344	0.041
Mof_H 	H 	0.4698	0.5353	0.1734	0.032
Mof_C 	C 	0.4926	0.707	0.1717	-0.001
Mof_H 	H 	0.487	0.7874	0.1602	0.057
Mof_H 	H 	0.4892	0.7181	0.1973	0.043
Mof_C 	C 	0.5499	0.676	0.1897	0.201
Mof_H 	H 	0.5396	0.6183	0.2074	-0.025
Mof_H 	H 	0.5484	0.7599	0.2002	0.047
Mof_C 	C 	0.5847	0.65	0.1896	-0.065
Mof_H 	H 	0.5923	0.6332	0.214	0.049
Mof_H 	H 	0.5978	0.7245	0.1815	-0.129
Mof_C 	C 	0.6222	0.5027	0.1816	-0.157
Mof_H 	H 	0.6163	0.4799	0.2061	-0.179
Mof_H 	H 	0.6406	0.569	0.1829	0.021
Mof_C 	C 	0.6377	0.4061	0.1678	0.123
Mof_H 	H 	0.6569	0.3771	0.1837	0.01
Mof_H 	H 	0.6492	0.4315	0.1455	0.011
Mof_C 	C 	0.6261	0.2097	0.1392	0.231
Mof_C 	C 	0.6556	0.1899	0.1234	-0.168
Mof_H 	H 	0.6744	0.2485	0.127	0.104
Mof_C 	C 	0.6629	0.0901	0.1013	-0.042
Mof_C 	C 	0.6345	0.0047	0.0911	-0.145
Mof_H 	H 	0.6385	0.9386	0.0749	0.088
Mof_C 	C 	0.6023	0.0251	0.1058	0.217
Mof_C 	C 	0.5967	0.1222	0.1301	-0.235
Mof_H 	H 	0.5738	0.1318	0.1407	0.115
Mof_C 	C 	0.6984	0.065	0.0841	0.491
Mof_C 	C 	0.5404	0.9798	0.1068	0.033
Mof_H 	H 	0.5355	0.0684	0.1015	0.035
Mof_H 	H 	0.5392	0.9682	0.1325	0.028
Mof_C 	C 	0.5134	0.8995	0.0894	-0.025
Mof_H 	H 	0.5132	0.915	0.0638	0.049
Mof_H 	H 	0.5189	0.8104	0.0935	0.059
Mof_C 	C 	0.4511	0.8754	0.0878	0.017
Mof_H 	H 	0.4555	0.785	0.0848	0.036
Mof_H 	H 	0.4472	0.9129	0.0644	0.033
Mof_C 	C 	0.4176	0.8978	0.1117	-0.033
Mof_H 	H 	0.3966	0.8616	0.0995	0.027
Mof_H 	H 	0.4212	0.8481	0.1333	-0.066
Mof_C 	C 	0.3855	0.082	0.0983	-0.19
Mof_H 	H 	0.3687	0.0198	0.0884	0.071
Mof_H 	H 	0.4005	0.1136	0.0788	0.113
Mof_C 	C 	0.3655	0.1812	0.1121	0.032
Mof_H 	H 	0.3556	0.1604	0.1354	0.035
Mof_H 	H 	0.3458	0.2056	0.0962	0.004
Mof_O 	O 	0.757	0.8539	0.5125	-1.312
Mof_H 	H 	0.7774	0.8162	0.5096	0.207
Mof_H 	H 	0.7454	0.8193	0.5297	0.232
Mof_Zn	Zn	0.7525	0.1818	0.5429	1.123
Mof_O 	O 	0.2981	0.485	0.2613	-0.175
Mof_O 	O 	0.5997	0.593	0.158	-0.236
Mof_O 	O 	0.718	0.229	0.085	-0.176
Mof_O 	O 	0.7186	0.012	0.076	-0.378
Mof_O 	O 	0.4091	0.0204	0.1026	-0.033
Mof_O 	O 	0.3879	0.2434	0.1366	-0.145
Mof_H 	H 	0.7273	0.339	0.4962	0.288
Mof_H 	H 	0.763	0.3786	0.5029	0.423
Mof_C 	C 	0.3212	0.444	0.2424	0.198
Mof_C 	C 	0.4351	0.4717	0.2583	0.017
Mof_C 	C 	0.4116	0.5094	0.2846	-0.034
Mof_H 	H 	0.4208	0.5419	0.306	0.035
Mof_C 	C 	0.3748	0.4995	0.2797	-0.017
Mof_H 	H 	0.3588	0.5253	0.2977	0.049
Mof_C 	C 	0.3614	0.4519	0.2485	-0.03
Mof_C 	C 	0.3848	0.4142	0.2222	0.004
Mof_H 	H 	0.3756	0.3817	0.2008	0.035
Mof_C 	C 	0.4216	0.4241	0.2271	-0.026
Mof_H 	H 	0.4376	0.3983	0.2091	0.039
Mof_C 	C 	0.5549	0.744	0.17	-0.152
Mof_H 	H 	0.5558	0.7605	0.1959	-0.039
Mof_H 	H 	0.5499	0.8246	0.1589	0.09
Mof_C 	C 	0.5879	0.712	0.161	0.184
Mof_H 	H 	0.6041	0.7535	0.1781	0.12
Mof_H 	H 	0.5923	0.7529	0.1382	-0.008
Mof_H 	H 	0.6411	0.553	0.1931	0.085
Mof_H 	H 	0.6061	0.4721	0.2004	0.263
Mof_C 	C 	0.708	0.118	0.085	-0.001
Mof_H 	H 	0.3978	0.8397	0.106	0.02
Mof_H 	H 	0.4237	0.8903	0.1369	0.143
Mof_C 	C 	0.3752	0.028	0.1197	0.2
Mof_H 	H 	0.3771	0.0094	0.145	0.005
Mof_H 	H 	0.3573	0.9716	0.1088	-0.048
Mof_H 	H 	0.3716	0.2053	0.0877	0.058
Mof_H 	H 	0.3399	0.1993	0.1165	-0
Mof_Zn	Zn	0.23017	0.58696	0.68688	1.208
Mof_Zn	Zn	0.73406	0.969	0.0237	1.153
Mof_O 	O 	0.189	0.6145	0.7157	-0.466
Mof_O 	O 	0.1944	0.434	0.7367	-0.216
Mof_O 	O 	0.7774	0.6419	0.7811	-0.405
Mof_O 	O 	0.779	0.4606	0.8005	-0.417
Mof_O 	O 	0.1964	0.7616	0.9912	-0.458
Mof_O 	O 	0.1934	0.5666	0.0075	-0.503
Mof_O 	O 	0.7826	0.9293	0.9737	-0.377
Mof_O 	O 	0.7818	0.9006	0.0295	-0.76
Mof_O 	O 	0.2203	0.4735	0.6463	-0.445
Mof_O 	O 	0.2005	0.2883	0.6379	-0.284
Mof_O 	O 	0.06833	0.3428	0.6611	-0.248
Mof_O 	O 	0.9725	0.3233	0.6653	-0.208
Mof_O 	O 	0.9047	0.4494	0.6693	0.061
Mof_O 	O 	0.8861	0.6953	0.6609	-0.26
Mof_O 	O 	0.7787	0.846	0.5873	-0.226
Mof_O 	O 	0.7975	0.036	0.5678	-0.334
Mof_O 	O 	0.9255	0.0536	0.5944	-0.239
Mof_O 	O 	0.0197	0.0685	0.6044	-0.175
Mof_O 	O 	0.0925	0.9768	0.6226	-0.171
Mof_O 	O 	0.1063	0.717	0.6146	-0.163
Mof_N 	N 	0.02208	0.3725	0.81257	-0.208
Mof_H 	H 	0.0447	0.3502	0.8142	0.111
Mof_N 	N 	0.96294	0.3874	0.8226	-0.115
Mof_N 	N 	0.0244	0.9054	0.9548	-0.212
Mof_H 	H 	0.047	0.9098	0.9481	0.128
Mof_N 	N 	0.9664	0.9449	0.9572	-0.137
Mof_C 	C 	0.1781	0.524	0.7315	0.171
Mof_C 	C 	0.0651	0.5333	0.7588	0.017
Mof_C 	C 	0.0858	0.4321	0.7691	-0.047
Mof_H 	H 	0.0748	0.3636	0.7808	0.039
Mof_C 	C 	0.1224	0.4312	0.7625	-0.015
Mof_H 	H 	0.1366	0.362	0.7696	0.049
Mof_C 	C 	0.1384	0.5314	0.7455	-0.02
Mof_C 	C 	0.1177	0.6326	0.7352	-0.027
Mof_H 	H 	0.1286	0.7011	0.7236	0.042
Mof_C 	C 	0.081	0.6335	0.7418	-0.059
Mof_H 	H 	0.0669	0.7027	0.7347	0.044
Mof_C 	C 	0.0247	0.5289	0.7632	-0.034
Mof_C 	C 	0.0077	0.4559	0.7886	0.054
Mof_C 	C 	0.9711	0.4645	0.7945	0.038
Mof_C 	C 	0.9483	0.5395	0.7738	-0.026
Mof_C 	C 	0.9652	0.6092	0.7488	-0.047
Mof_H 	H 	0.9513	0.6618	0.7341	0.044
Mof_C 	C 	0.0034	0.6047	0.7443	-0.041
Mof_H 	H 	0.0141	0.6574	0.7272	0.043
Mof_C 	C 	0.9086	0.5437	0.7785	0.061
Mof_C 	C 	0.8894	0.4316	0.7842	-0.095
Mof_H 	H 	0.9016	0.3542	0.7858	0.07
Mof_C 	C 	0.852	0.4371	0.7875	0.017
Mof_H 	H 	0.839	0.3625	0.7917	0.042
Mof_C 	C 	0.8339	0.5468	0.7848	-0.07
Mof_C 	C 	0.8516	0.6561	0.78	0.009
Mof_H 	H 	0.8388	0.7327	0.7799	0.056
Mof_C 	C 	0.8901	0.6551	0.7749	-0.096
Mof_H 	H 	0.9025	0.7297	0.7693	0.071
Mof_C 	C 	0.791	0.554	0.7934	0.391
Mof_C 	C 	0.9956	0.3333	0.8324	0.111
Mof_C 	C 	0.9973	0.2476	0.8619	-0.003
Mof_C 	C 	0.0242	0.1601	0.8634	-0.057
Mof_H 	H 	0.0417	0.1591	0.8454	0.059
Mof_C 	C 	0.0266	0.0739	0.8899	-0.027
Mof_H 	H 	0.0461	0.0167	0.8906	0.054
Mof_C 	C 	3.51594e-33	0.0721	0.9156	-0.031
Mof_C 	C 	0.9733	0.1614	0.9146	-0.021
Mof_H 	H 	0.9555	0.1633	0.9324	0.052
Mof_C 	C 	0.9723	0.2486	0.8877	-0.064
Mof_H 	H 	0.9538	0.3095	0.8873	0.091
Mof_C 	C 	0.997	0.9742	0.9428	0.136
Mof_C 	C 	0.178	0.669	0.0023	0.395
Mof_C 	C 	0.1397	0.6796	0.0049	-0.214
Mof_C 	C 	0.1171	0.5829	0.0046	0.136
Mof_H 	H 	0.1268	0.5012	0.0057	-0.007
Mof_C 	C 	0.0811	0.5953	0.0028	-0.196
Mof_H 	H 	0.0662	0.5236	0.0016	0.098
Mof_C 	C 	0.0659	0.7132	0.0028	0.134
Mof_C 	C 	0.0891	0.8134	0.004	-0.194
Mof_H 	H 	0.0796	0.8955	0.004	0.106
Mof_C 	C 	0.1248	0.7975	0.0051	0.129
Mof_H 	H 	0.14	0.8683	0.0061	0.005
Mof_C 	C 	0.0261	0.735	0.001	-0.068
Mof_C 	C 	0.0021	0.6659	0.0217	-0.023
Mof_H 	H 	0.0111	0.6002	0.0359	0.041
Mof_C 	C 	0.9661	0.6907	0.0219	-0.05
Mof_H 	H 	0.9512	0.6428	0.037	0.049
Mof_C 	C 	0.9502	0.7811	0.0016	-0.037
Mof_C 	C 	0.9735	0.8495	0.9803	0.038
Mof_C 	C 	0.0102	0.8252	0.9801	0.07
Mof_C 	C 	0.9103	0.8068	0.0013	0.099
Mof_C 	C 	0.8912	0.7993	0.0327	-0.149
Mof_H 	H 	0.9026	0.7795	0.0542	0.088
Mof_C 	C 	0.8528	0.8233	0.0306	0.082
Mof_H 	H 	0.8385	0.8132	0.0511	0.012
Mof_C 	C 	0.8365	0.8601	-0	-0.202
Mof_C 	C 	0.8573	0.8723	0.9708	0.101
Mof_H 	H 	0.8466	0.9024	0.9498	0.014
Mof_C 	C 	0.8934	0.8424	0.9707	-0.163
Mof_H 	H 	0.9066	0.8464	0.9494	0.095
Mof_C 	C 	0.7993	0.8959	0.0006	0.414
Mof_C 	C 	0.1951	0.398	0.6414	0.332
Mof_C 	C 	0.1578	0.4497	0.6418	0.029
Mof_C 	C 	0.1294	0.3721	0.6505	-0.196
Mof_H 	H 	0.1334	0.2871	0.6563	0.114
Mof_C 	C 	0.0951	0.4215	0.6505	0.269
Mof_C 	C 	0.0899	0.5478	0.6435	-0.317
Mof_H 	H 	0.0664	0.5817	0.6439	0.156
Mof_C 	C 	0.1186	0.6232	0.6362	0.299
Mof_C 	C 	0.153	0.5764	0.6349	-0.22
Mof_H 	H 	0.1728	0.6286	0.6294	0.091
Mof_C 	C 	0.0325	0.3883	0.659	0.023
Mof_H 	H 	0.0268	0.4098	0.6344	0.041
Mof_H 	H 	0.0302	0.4647	0.6734	0.032
Mof_C 	C 	0.0074	0.293	0.6717	-0
Mof_H 	H 	0.013	0.2126	0.6602	0.057
Mof_H 	H 	0.0108	0.2819	0.6973	0.042
Mof_C 	C 	0.9501	0.324	0.6897	0.201
Mof_H 	H 	0.9604	0.3817	0.7074	-0.025
Mof_H 	H 	0.9516	0.2401	0.7002	0.046
Mof_C 	C 	0.9153	0.35	0.6896	-0.065
Mof_H 	H 	0.9077	0.3668	0.714	0.049
Mof_H 	H 	0.9022	0.2755	0.6815	-0.129
Mof_C 	C 	0.8778	0.4973	0.6816	-0.157
Mof_H 	H 	0.8837	0.5201	0.7061	-0.179
Mof_H 	H 	0.8594	0.431	0.6829	0.021
Mof_C 	C 	0.8623	0.5939	0.6678	0.123
Mof_H 	H 	0.8431	0.6229	0.6837	0.01
Mof_H 	H 	0.8508	0.5685	0.6455	0.011
Mof_C 	C 	0.8739	0.7903	0.6392	0.231
Mof_C 	C 	0.8444	0.8101	0.6234	-0.168
Mof_H 	H 	0.8256	0.7515	0.627	0.104
Mof_C 	C 	0.8371	0.9099	0.6013	-0.042
Mof_C 	C 	0.8655	0.9953	0.5911	-0.145
Mof_H 	H 	0.8615	0.0614	0.5749	0.088
Mof_C 	C 	0.8977	0.9749	0.6058	0.217
Mof_C 	C 	0.9033	0.8778	0.6301	-0.235
Mof_H 	H 	0.9262	0.8682	0.6407	0.115
Mof_C 	C 	0.8016	0.935	0.5841	0.491
Mof_C 	C 	0.9596	0.0202	0.6068	0.034
Mof_H 	H 	0.9645	0.9316	0.6015	0.035
Mof_H 	H 	0.9608	0.0318	0.6325	0.028
Mof_C 	C 	0.9866	0.1005	0.5894	-0.025
Mof_H 	H 	0.9868	0.085	0.5638	0.049
Mof_H 	H 	0.9811	0.1896	0.5935	0.059
Mof_C 	C 	0.0489	0.1246	0.5878	0.017
Mof_H 	H 	0.0445	0.215	0.5848	0.036
Mof_H 	H 	0.0528	0.0871	0.5644	0.033
Mof_C 	C 	0.0824	0.1022	0.6117	-0.033
Mof_H 	H 	0.1034	0.1384	0.5995	0.027
Mof_H 	H 	0.0788	0.1519	0.6333	-0.066
Mof_C 	C 	0.1145	0.918	0.5983	-0.191
Mof_H 	H 	0.1313	0.9802	0.5884	0.071
Mof_H 	H 	0.0995	0.8864	0.5788	0.114
Mof_C 	C 	0.1345	0.8188	0.6121	0.032
Mof_H 	H 	0.1444	0.8396	0.6354	0.035
Mof_H 	H 	0.1542	0.7944	0.5962	0.004
Mof_O 	O 	0.743	0.1461	0.0125	-1.31
Mof_H 	H 	0.7226	0.1838	0.0096	0.211
Mof_H 	H 	0.7546	0.1807	0.0297	0.231
Mof_Zn	Zn	0.7475	0.8182	0.0429	1.123
Mof_O 	O 	0.2019	0.515	0.7613	-0.175
Mof_O 	O 	0.9003	0.407	0.658	-0.236
Mof_O 	O 	0.782	0.771	0.585	-0.176
Mof_O 	O 	0.7814	0.988	0.576	-0.378
Mof_O 	O 	0.0909	0.9796	0.6026	-0.033
Mof_O 	O 	0.1121	0.7566	0.6366	-0.145
Mof_H 	H 	0.7727	0.661	0.9962	0.283
Mof_H 	H 	0.737	0.6214	0.0029	0.423
Mof_C 	C 	0.1788	0.556	0.7424	0.198
Mof_C 	C 	0.0649	0.5283	0.7583	0.017
Mof_C 	C 	0.0884	0.4906	0.7846	-0.034
Mof_H 	H 	0.0792	0.4581	0.806	0.035
Mof_C 	C 	0.1252	0.5005	0.7797	-0.017
Mof_H 	H 	0.1412	0.4747	0.7977	0.049
Mof_C 	C 	0.1386	0.5481	0.7485	-0.03
Mof_C 	C 	0.1152	0.5858	0.7222	0.004
Mof_H 	H 	0.1244	0.6183	0.7008	0.035
Mof_C 	C 	0.0784	0.5759	0.7271	-0.026
Mof_H 	H 	0.0624	0.6017	0.7091	0.039
Mof_C 	C 	0.9451	0.256	0.67	-0.152
Mof_H 	H 	0.9442	0.2395	0.6959	-0.039
Mof_H 	H 	0.9501	0.1754	0.6589	0.09
Mof_C 	C 	0.9121	0.288	0.661	0.184
Mof_H 	H 	0.8959	0.2465	0.6781	0.12
Mof_H 	H 	0.9077	0.2471	0.6382	-0.008
Mof_H 	H 	0.8589	0.447	0.6931	0.085
Mof_H 	H 	0.8939	0.5279	0.7004	0.263
Mof_C 	C 	0.792	0.882	0.585	-0.001
Mof_H 	H 	0.1022	0.1603	0.606	0.02
Mof_H 	H 	0.0763	0.1097	0.6369	0.144
Mof_C 	C 	0.1248	0.972	0.6197	0.2
Mof_H 	H 	0.1229	0.9906	0.645	0.005
Mof_H 	H 	0.1427	0.0284	0.6088	-0.048
Mof_H 	H 	0.1284	0.7947	0.5877	0.058
Mof_H 	H 	0.1601	0.8007	0.6165	-0
Mof_Zn	Zn	0.73017	0.91304	0.31312	1.207
Mof_Zn	Zn	0.23406	0.531	0.9763	1.153
Mof_O 	O 	0.689	0.8855	0.2843	-0.467
Mof_O 	O 	0.6944	0.066	0.2633	-0.212
Mof_O 	O 	0.2774	0.8581	0.2189	-0.404
Mof_O 	O 	0.279	0.0394	0.1995	-0.41
Mof_O 	O 	0.6964	0.7384	0.0088	-0.454
Mof_O 	O 	0.6934	0.9334	0.9925	-0.503
Mof_O 	O 	0.2826	0.5707	0.0263	-0.373
Mof_O 	O 	0.2818	0.5994	0.9705	-0.758
Mof_O 	O 	0.7203	0.0265	0.3537	-0.442
Mof_O 	O 	0.7005	0.2117	0.3621	-0.282
Mof_O 	O 	0.56833	0.1572	0.3389	-0.25
Mof_O 	O 	0.4725	0.1767	0.3347	-0.207
Mof_O 	O 	0.4047	0.0506	0.3307	0.053
Mof_O 	O 	0.3861	0.8047	0.3391	-0.253
Mof_O 	O 	0.2787	0.654	0.4127	-0.224
Mof_O 	O 	0.2975	0.464	0.4322	-0.329
Mof_O 	O 	0.4255	0.4464	0.4056	-0.238
Mof_O 	O 	0.5197	0.4315	0.3956	-0.173
Mof_O 	O 	0.5925	0.5232	0.3774	-0.176
Mof_O 	O 	0.6063	0.783	0.3854	-0.165
Mof_N 	N 	0.52208	0.1275	0.18743	-0.209
Mof_H 	H 	0.5447	0.1498	0.1858	0.112
Mof_N 	N 	0.46294	0.1126	0.1774	-0.115
Mof_N 	N 	0.5244	0.5946	0.0452	-0.212
Mof_H 	H 	0.547	0.5902	0.0519	0.128
Mof_N 	N 	0.4664	0.5551	0.0428	-0.137
Mof_C 	C 	0.6781	0.976	0.2685	0.176
Mof_C 	C 	0.5651	0.9667	0.2412	0.012
Mof_C 	C 	0.5858	0.0679	0.2309	-0
Mof_H 	H 	0.5748	0.1364	0.2192	0.025
Mof_C 	C 	0.6224	0.0688	0.2375	-0.024
Mof_H 	H 	0.6366	0.138	0.2304	0.053
Mof_C 	C 	0.6384	0.9686	0.2545	-0.021
Mof_C 	C 	0.6177	0.8674	0.2648	-0.017
Mof_H 	H 	0.6286	0.7989	0.2764	0.039
Mof_C 	C 	0.581	0.8665	0.2582	-0.043
Mof_H 	H 	0.5669	0.7973	0.2653	0.039
Mof_C 	C 	0.5247	0.9711	0.2368	-0.038
Mof_C 	C 	0.5077	0.0441	0.2114	0.058
Mof_C 	C 	0.4711	0.0355	0.2055	0.043
Mof_C 	C 	0.4483	0.9605	0.2262	-0.031
Mof_C 	C 	0.4652	0.8908	0.2512	-0.046
Mof_H 	H 	0.4513	0.8382	0.2659	0.044
Mof_C 	C 	0.5034	0.8953	0.2557	-0.042
Mof_H 	H 	0.5141	0.8426	0.2728	0.043
Mof_C 	C 	0.4086	0.9563	0.2215	0.057
Mof_C 	C 	0.3894	0.0684	0.2158	-0.091
Mof_H 	H 	0.4016	0.1458	0.2142	0.069
Mof_C 	C 	0.352	0.0629	0.2125	0.023
Mof_H 	H 	0.339	0.1375	0.2083	0.041
Mof_C 	C 	0.3339	0.9532	0.2152	-0.075
Mof_C 	C 	0.3516	0.8439	0.22	0.011
Mof_H 	H 	0.3388	0.7673	0.2201	0.055
Mof_C 	C 	0.3901	0.8449	0.2251	-0.096
Mof_H 	H 	0.4025	0.7703	0.2307	0.072
Mof_C 	C 	0.291	0.946	0.2066	0.385
Mof_C 	C 	0.4956	0.1667	0.1676	0.113
Mof_C 	C 	0.4973	0.2524	0.1381	-0.004
Mof_C 	C 	0.5242	0.3399	0.1366	-0.056
Mof_H 	H 	0.5417	0.3409	0.1546	0.059
Mof_C 	C 	0.5266	0.4261	0.1101	-0.028
Mof_H 	H 	0.5461	0.4833	0.1094	0.056
Mof_C 	C 	0.5	0.4279	0.0844	-0.028
Mof_C 	C 	0.4733	0.3386	0.0854	-0.022
Mof_H 	H 	0.4555	0.3367	0.0676	0.053
Mof_C 	C 	0.4723	0.2514	0.1123	-0.063
Mof_H 	H 	0.4538	0.1905	0.1127	0.091
Mof_C 	C 	0.497	0.5258	0.0572	0.134
Mof_C 	C 	0.678	0.831	0.9977	0.391
Mof_C 	C 	0.6397	0.8204	0.9951	-0.213
Mof_C 	C 	0.6171	0.9171	0.9954	0.135
Mof_H 	H 	0.6268	0.9988	0.9943	-0.007
Mof_C 	C 	0.5811	0.9047	0.9972	-0.196
Mof_H 	H 	0.5662	0.9764	0.9984	0.097
Mof_C 	C 	0.5659	0.7868	0.9972	0.134
Mof_C 	C 	0.5891	0.6866	0.996	-0.194
Mof_H 	H 	0.5796	0.6045	0.996	0.106
Mof_C 	C 	0.6248	0.7025	0.9949	0.128
Mof_H 	H 	0.64	0.6317	0.9939	0.005
Mof_C 	C 	0.5261	0.765	0.999	-0.071
Mof_C 	C 	0.5021	0.8341	0.9783	-0.023
Mof_H 	H 	0.5111	0.8998	0.9641	0.041
Mof_C 	C 	0.4661	0.8093	0.9781	-0.05
Mof_H 	H 	0.4512	0.8572	0.963	0.049
Mof_C 	C 	0.4502	0.7189	0.9984	-0.038
Mof_C 	C 	0.4735	0.6505	0.0197	0.04
Mof_C 	C 	0.5102	0.6748	0.0199	0.073
Mof_C 	C 	0.4103	0.6932	0.9987	0.093
Mof_C 	C 	0.3912	0.7007	0.9673	-0.144
Mof_H 	H 	0.4026	0.7205	0.9458	0.086
Mof_C 	C 	0.3528	0.6767	0.9694	0.075
Mof_H 	H 	0.3385	0.6868	0.9489	0.014
Mof_C 	C 	0.3365	0.6399	-0	-0.195
Mof_C 	C 	0.3573	0.6277	0.0292	0.096
Mof_H 	H 	0.3466	0.5976	0.0502	0.016
Mof_C 	C 	0.3934	0.6576	0.0293	-0.155
Mof_H 	H 	0.4066	0.6536	0.0506	0.092
Mof_C 	C 	0.2993	0.6041	0.9994	0.406
Mof_C 	C 	0.6951	0.102	0.3586	0.328
Mof_C 	C 	0.6578	0.0503	0.3582	0.039
Mof_C 	C 	0.6294	0.1279	0.3495	-0.203
Mof_H 	H 	0.6334	0.2129	0.3437	0.117
Mof_C 	C 	0.5951	0.0785	0.3495	0.279
Mof_C 	C 	0.5899	0.9522	0.3565	-0.329
Mof_H 	H 	0.5664	0.9183	0.3561	0.159
Mof_C 	C 	0.6186	0.8768	0.3638	0.307
Mof_C 	C 	0.653	0.9236	0.3651	-0.232
Mof_H 	H 	0.6728	0.8714	0.3706	0.094
Mof_C 	C 	0.5325	0.1117	0.341	0.024
Mof_H 	H 	0.5268	0.0902	0.3656	0.042
Mof_H 	H 	0.5302	0.0353	0.3266	0.033
Mof_C 	C 	0.5074	0.207	0.3283	-0.001
Mof_H 	H 	0.513	0.2874	0.3398	0.058
Mof_H 	H 	0.5108	0.2181	0.3027	0.043
Mof_C 	C 	0.4501	0.176	0.3103	0.219
Mof_H 	H 	0.4604	0.1183	0.2926	-0.03
Mof_H 	H 	0.4516	0.2599	0.2998	0.052
Mof_C 	C 	0.4153	0.15	0.3104	-0.072
Mof_H 	H 	0.4077	0.1332	0.286	0.053
Mof_H 	H 	0.4022	0.2245	0.3185	-0.132
Mof_C 	C 	0.3778	0.0027	0.3184	-0.113
Mof_H 	H 	0.3837	0.9799	0.2939	-0.166
Mof_H 	H 	0.3594	0.069	0.3171	0.032
Mof_C 	C 	0.3623	0.9061	0.3322	0.088
Mof_H 	H 	0.3431	0.8771	0.3163	0.02
Mof_H 	H 	0.3508	0.9315	0.3545	0.019
Mof_C 	C 	0.3739	0.7097	0.3608	0.227
Mof_C 	C 	0.3444	0.6899	0.3766	-0.166
Mof_H 	H 	0.3256	0.7485	0.373	0.103
Mof_C 	C 	0.3371	0.5901	0.3987	-0.043
Mof_C 	C 	0.3655	0.5047	0.4089	-0.148
Mof_H 	H 	0.3615	0.4386	0.4251	0.091
Mof_C 	C 	0.3977	0.5251	0.3942	0.215
Mof_C 	C 	0.4033	0.6222	0.3699	-0.234
Mof_H 	H 	0.4262	0.6318	0.3593	0.114
Mof_C 	C 	0.3016	0.565	0.4159	0.492
Mof_C 	C 	0.4596	0.4798	0.3932	0.04
Mof_H 	H 	0.4645	0.5684	0.3985	0.031
Mof_H 	H 	0.4608	0.4682	0.3675	0.027
Mof_C 	C 	0.4866	0.3995	0.4106	-0.028
Mof_H 	H 	0.4868	0.415	0.4362	0.051
Mof_H 	H 	0.4811	0.3104	0.4065	0.06
Mof_C 	C 	0.5489	0.3754	0.4122	0.016
Mof_H 	H 	0.5445	0.285	0.4152	0.037
Mof_H 	H 	0.5528	0.4129	0.4356	0.034
Mof_C 	C 	0.5824	0.3978	0.3883	-0.032
Mof_H 	H 	0.6034	0.3616	0.4005	0.028
Mof_H 	H 	0.5788	0.3481	0.3667	-0.07
Mof_C 	C 	0.6145	0.582	0.4017	-0.205
Mof_H 	H 	0.6313	0.5198	0.4116	0.072
Mof_H 	H 	0.5995	0.6136	0.4212	0.117
Mof_C 	C 	0.6345	0.6812	0.3879	0.043
Mof_H 	H 	0.6444	0.6604	0.3646	0.032
Mof_H 	H 	0.6542	0.7056	0.4038	0.002
Mof_O 	O 	0.243	0.3539	0.9875	-1.315
Mof_H 	H 	0.2226	0.3162	0.9904	0.204
Mof_H 	H 	0.2546	0.3193	0.9703	0.233
Mof_Zn	Zn	0.2475	0.6818	0.9571	1.123
Mof_O 	O 	0.7019	0.985	0.2387	-0.177
Mof_O 	O 	0.4003	0.093	0.342	-0.236
Mof_O 	O 	0.282	0.729	0.415	-0.177
Mof_O 	O 	0.2814	0.512	0.424	-0.384
Mof_O 	O 	0.5909	0.5204	0.3974	-0.028
Mof_O 	O 	0.6121	0.7434	0.3634	-0.147
Mof_H 	H 	0.2727	0.839	0.0038	0.291
Mof_H 	H 	0.237	0.8786	0.9971	0.422
Mof_C 	C 	0.6788	0.944	0.2576	0.188
Mof_C 	C 	0.5649	0.9717	0.2417	0.015
Mof_C 	C 	0.5884	0.0094	0.2154	-0.069
Mof_H 	H 	0.5792	0.0419	0.194	0.047
Mof_C 	C 	0.6252	0.9995	0.2203	-0.017
Mof_H 	H 	0.6412	0.0253	0.2023	0.052
Mof_C 	C 	0.6386	0.9519	0.2515	-0.029
Mof_C 	C 	0.6152	0.9142	0.2778	-0.009
Mof_H 	H 	0.6244	0.8817	0.2992	0.039
Mof_C 	C 	0.5784	0.9241	0.2729	-0.039
Mof_H 	H 	0.5624	0.8983	0.2909	0.043
Mof_C 	C 	0.4451	0.244	0.33	-0.17
Mof_H 	H 	0.4442	0.2605	0.3041	-0.046
Mof_H 	H 	0.4501	0.3246	0.3411	0.097
Mof_C 	C 	0.4121	0.212	0.339	0.201
Mof_H 	H 	0.3959	0.2535	0.3219	0.119
Mof_H 	H 	0.4077	0.2529	0.3618	-0.013
Mof_H 	H 	0.3589	0.053	0.3069	0.062
Mof_H 	H 	0.3939	0.9721	0.2996	0.236
Mof_C 	C 	0.292	0.618	0.415	-0.002
Mof_H 	H 	0.6022	0.3397	0.394	0.019
Mof_H 	H 	0.5763	0.3903	0.3631	0.148
Mof_C 	C 	0.6248	0.528	0.3803	0.208
Mof_H 	H 	0.6229	0.5094	0.355	0.001
Mof_H 	H 	0.6427	0.4716	0.3912	-0.049
Mof_H 	H 	0.6284	0.7053	0.4123	0.056
Mof_H 	H 	0.6601	0.6993	0.3835	-0.002
Mof_Zn	Zn	0.76983	0.08696	0.81312	1.207
Mof_Zn	Zn	0.26594	0.469	0.4763	1.153
Mof_O 	O 	0.811	0.1145	0.7843	-0.467
Mof_O 	O 	0.8056	0.934	0.7633	-0.212
Mof_O 	O 	0.2226	0.1419	0.7189	-0.404
Mof_O 	O 	0.221	0.9606	0.6995	-0.41
Mof_O 	O 	0.8036	0.2616	0.5088	-0.456
Mof_O 	O 	0.8066	0.0666	0.4925	-0.503
Mof_O 	O 	0.2174	0.4293	0.5263	-0.376
Mof_O 	O 	0.2182	0.4006	0.4705	-0.759
Mof_O 	O 	0.7797	0.9735	0.8537	-0.442
Mof_O 	O 	0.7995	0.7883	0.8621	-0.282
Mof_O 	O 	0.93167	0.8428	0.8389	-0.25
Mof_O 	O 	0.0275	0.8233	0.8347	-0.207
Mof_O 	O 	0.0953	0.9494	0.8307	0.053
Mof_O 	O 	0.1139	0.1953	0.8391	-0.253
Mof_O 	O 	0.2213	0.346	0.9127	-0.224
Mof_O 	O 	0.2025	0.536	0.9322	-0.329
Mof_O 	O 	0.0745	0.5536	0.9056	-0.238
Mof_O 	O 	0.9803	0.5685	0.8956	-0.174
Mof_O 	O 	0.9075	0.4768	0.8774	-0.176
Mof_O 	O 	0.8937	0.217	0.8854	-0.165
Mof_N 	N 	0.97792	0.8725	0.68743	-0.209
Mof_H 	H 	0.9553	0.8502	0.6858	0.112
Mof_N 	N 	0.03706	0.8874	0.6774	-0.115
Mof_N 	N 	0.9756	0.4054	0.5452	-0.212
Mof_H 	H 	0.953	0.4098	0.5519	0.127
Mof_N 	N 	0.0336	0.4449	0.5428	-0.137
Mof_C 	C 	0.8219	0.024	0.7685	0.177
Mof_C 	C 	0.9349	0.0333	0.7412	0.012
Mof_C 	C 	0.9142	0.9321	0.7309	-0.001
Mof_H 	H 	0.9252	0.8636	0.7192	0.025
Mof_C 	C 	0.8776	0.9312	0.7375	-0.024
Mof_H 	H 	0.8634	0.862	0.7304	0.053
Mof_C 	C 	0.8616	0.0314	0.7545	-0.021
Mof_C 	C 	0.8823	0.1326	0.7648	-0.017
Mof_H 	H 	0.8714	0.2011	0.7764	0.039
Mof_C 	C 	0.919	0.1335	0.7582	-0.043
Mof_H 	H 	0.9331	0.2027	0.7653	0.039
Mof_C 	C 	0.9753	0.0289	0.7368	-0.037
Mof_C 	C 	0.9923	0.9559	0.7114	0.057
Mof_C 	C 	0.0289	0.9645	0.7055	0.043
Mof_C 	C 	0.0517	0.0395	0.7262	-0.031
Mof_C 	C 	0.0348	0.1092	0.7512	-0.045
Mof_H 	H 	0.0487	0.1618	0.7659	0.044
Mof_C 	C 	0.9966	0.1047	0.7557	-0.043
Mof_H 	H 	0.9859	0.1574	0.7728	0.043
Mof_C 	C 	0.0914	0.0437	0.7215	0.058
Mof_C 	C 	0.1106	0.9316	0.7158	-0.092
Mof_H 	H 	0.0984	0.8542	0.7142	0.069
Mof_C 	C 	0.148	0.9371	0.7125	0.023
Mof_H 	H 	0.161	0.8625	0.7083	0.041
Mof_C 	C 	0.1661	0.0468	0.7152	-0.075
Mof_C 	C 	0.1484	0.1561	0.72	0.011
Mof_H 	H 	0.1612	0.2327	0.7201	0.055
Mof_C 	C 	0.1099	0.1551	0.7251	-0.096
Mof_H 	H 	0.0975	0.2297	0.7307	0.072
Mof_C 	C 	0.209	0.054	0.7066	0.385
Mof_C 	C 	0.0044	0.8333	0.6676	0.113
Mof_C 	C 	0.0027	0.7476	0.6381	-0.003
Mof_C 	C 	0.9758	0.6601	0.6366	-0.056
Mof_H 	H 	0.9583	0.6591	0.6546	0.059
Mof_C 	C 	0.9734	0.5739	0.6101	-0.028
Mof_H 	H 	0.9539	0.5167	0.6094	0.056
Mof_C 	C 	2.24412e-33	0.5721	0.5844	-0.028
Mof_C 	C 	0.0267	0.6614	0.5854	-0.022
Mof_H 	H 	0.0445	0.6633	0.5676	0.053
Mof_C 	C 	0.0277	0.7486	0.6123	-0.063
Mof_H 	H 	0.0462	0.8095	0.6127	0.091
Mof_C 	C 	0.003	0.4742	0.5572	0.134
Mof_C 	C 	0.822	0.169	0.4977	0.392
Mof_C 	C 	0.8603	0.1796	0.4951	-0.213
Mof_C 	C 	0.8829	0.0829	0.4954	0.135
Mof_H 	H 	0.8732	0.0012	0.4943	-0.007
Mof_C 	C 	0.9189	0.0953	0.4972	-0.195
Mof_H 	H 	0.9338	0.0236	0.4984	0.097
Mof_C 	C 	0.9341	0.2132	0.4972	0.134
Mof_C 	C 	0.9109	0.3134	0.496	-0.194
Mof_H 	H 	0.9204	0.3955	0.496	0.106
Mof_C 	C 	0.8752	0.2975	0.4949	0.128
Mof_H 	H 	0.86	0.3683	0.4939	0.005
Mof_C 	C 	0.9739	0.235	0.499	-0.069
Mof_C 	C 	0.9979	0.1659	0.4783	-0.025
Mof_H 	H 	0.9889	0.1002	0.4641	0.042
Mof_C 	C 	0.0339	0.1907	0.4781	-0.048
Mof_H 	H 	0.0488	0.1428	0.463	0.049
Mof_C 	C 	0.0498	0.2811	0.4984	-0.039
Mof_C 	C 	0.0265	0.3495	0.5197	0.04
Mof_C 	C 	0.9898	0.3252	0.5199	0.07
Mof_C 	C 	0.0897	0.3068	0.4987	0.098
Mof_C 	C 	0.1088	0.2993	0.4673	-0.149
Mof_H 	H 	0.0974	0.2795	0.4458	0.088
Mof_C 	C 	0.1472	0.3233	0.4694	0.082
Mof_H 	H 	0.1615	0.3132	0.4489	0.012
Mof_C 	C 	0.1635	0.3601	0.5	-0.203
Mof_C 	C 	0.1427	0.3723	0.5292	0.103
Mof_H 	H 	0.1534	0.4024	0.5502	0.014
Mof_C 	C 	0.1066	0.3424	0.5293	-0.162
Mof_H 	H 	0.0934	0.3464	0.5506	0.094
Mof_C 	C 	0.2007	0.3959	0.4994	0.412
Mof_C 	C 	0.8049	0.898	0.8586	0.328
Mof_C 	C 	0.8422	0.9497	0.8582	0.039
Mof_C 	C 	0.8706	0.8721	0.8495	-0.203
Mof_H 	H 	0.8666	0.7871	0.8437	0.117
Mof_C 	C 	0.9049	0.9215	0.8495	0.279
Mof_C 	C 	0.9101	0.0478	0.8565	-0.329
Mof_H 	H 	0.9336	0.0817	0.8561	0.159
Mof_C 	C 	0.8814	0.1232	0.8638	0.307
Mof_C 	C 	0.847	0.0764	0.8651	-0.233
Mof_H 	H 	0.8272	0.1286	0.8706	0.094
Mof_C 	C 	0.9675	0.8883	0.841	0.024
Mof_H 	H 	0.9732	0.9098	0.8656	0.042
Mof_H 	H 	0.9698	0.9647	0.8266	0.033
Mof_C 	C 	0.9926	0.793	0.8283	-0.002
Mof_H 	H 	0.987	0.7126	0.8398	0.058
Mof_H 	H 	0.9892	0.7819	0.8027	0.043
Mof_C 	C 	0.0499	0.824	0.8103	0.219
Mof_H 	H 	0.0396	0.8817	0.7926	-0.03
Mof_H 	H 	0.0484	0.7401	0.7998	0.052
Mof_C 	C 	0.0847	0.85	0.8104	-0.072
Mof_H 	H 	0.0923	0.8668	0.786	0.054
Mof_H 	H 	0.0978	0.7755	0.8185	-0.132
Mof_C 	C 	0.1222	0.9973	0.8184	-0.112
Mof_H 	H 	0.1163	0.0201	0.7939	-0.166
Mof_H 	H 	0.1406	0.931	0.8171	0.032
Mof_C 	C 	0.1377	0.0939	0.8322	0.087
Mof_H 	H 	0.1569	0.1229	0.8163	0.02
Mof_H 	H 	0.1492	0.0685	0.8545	0.019
Mof_C 	C 	0.1261	0.2903	0.8608	0.227
Mof_C 	C 	0.1556	0.3101	0.8766	-0.166
Mof_H 	H 	0.1744	0.2515	0.873	0.103
Mof_C 	C 	0.1629	0.4099	0.8987	-0.043
Mof_C 	C 	0.1345	0.4953	0.9089	-0.148
Mof_H 	H 	0.1385	0.5614	0.9251	0.091
Mof_C 	C 	0.1023	0.4749	0.8942	0.215
Mof_C 	C 	0.0967	0.3778	0.8699	-0.234
Mof_H 	H 	0.0738	0.3682	0.8593	0.114
Mof_C 	C 	0.1984	0.435	0.9159	0.492
Mof_C 	C 	0.0404	0.5202	0.8932	0.04
Mof_H 	H 	0.0355	0.4316	0.8985	0.031
Mof_H 	H 	0.0392	0.5318	0.8675	0.027
Mof_C 	C 	0.0134	0.6005	0.9106	-0.028
Mof_H 	H 	0.0132	0.585	0.9362	0.05
Mof_H 	H 	0.0189	0.6896	0.9065	0.06
Mof_C 	C 	0.9511	0.6246	0.9122	0.016
Mof_H 	H 	0.9555	0.715	0.9152	0.036
Mof_H 	H 	0.9472	0.5871	0.9356	0.033
Mof_C 	C 	0.9176	0.6022	0.8883	-0.032
Mof_H 	H 	0.8966	0.6384	0.9005	0.028
Mof_H 	H 	0.9212	0.6519	0.8667	-0.07
Mof_C 	C 	0.8855	0.418	0.9017	-0.205
Mof_H 	H 	0.8687	0.4802	0.9116	0.072
Mof_H 	H 	0.9005	0.3864	0.9212	0.117
Mof_C 	C 	0.8655	0.3188	0.8879	0.043
Mof_H 	H 	0.8556	0.3396	0.8646	0.032
Mof_H 	H 	0.8458	0.2944	0.9038	0.002
Mof_O 	O 	0.257	0.6461	0.4875	-1.313
Mof_H 	H 	0.2774	0.6838	0.4904	0.207
Mof_H 	H 	0.2454	0.6807	0.4703	0.232
Mof_Zn	Zn	0.2525	0.3182	0.4571	1.123
Mof_O 	O 	0.7981	0.015	0.7387	-0.177
Mof_O 	O 	0.0997	0.907	0.842	-0.236
Mof_O 	O 	0.218	0.271	0.915	-0.178
Mof_O 	O 	0.2186	0.488	0.924	-0.383
Mof_O 	O 	0.9091	0.4796	0.8974	-0.028
Mof_O 	O 	0.8879	0.2566	0.8634	-0.147
Mof_H 	H 	0.2273	0.161	0.5038	0.287
Mof_H 	H 	0.263	0.1214	0.4971	0.423
Mof_C 	C 	0.8212	0.056	0.7576	0.188
Mof_C 	C 	0.9351	0.0283	0.7417	0.015
Mof_C 	C 	0.9116	0.9906	0.7154	-0.069
Mof_H 	H 	0.9208	0.9581	0.694	0.047
Mof_C 	C 	0.8748	0.0005	0.7203	-0.017
Mof_H 	H 	0.8588	0.9747	0.7023	0.052
Mof_C 	C 	0.8614	0.0481	0.7515	-0.029
Mof_C 	C 	0.8848	0.0858	0.7778	-0.009
Mof_H 	H 	0.8756	0.1183	0.7992	0.039
Mof_C 	C 	0.9216	0.0759	0.7729	-0.039
Mof_H 	H 	0.9376	0.1017	0.7909	0.043
Mof_C 	C 	0.0549	0.756	0.83	-0.171
Mof_H 	H 	0.0558	0.7395	0.8041	-0.046
Mof_H 	H 	0.0499	0.6754	0.8411	0.097
Mof_C 	C 	0.0879	0.788	0.839	0.202
Mof_H 	H 	0.1041	0.7465	0.8219	0.119
Mof_H 	H 	0.0923	0.7471	0.8618	-0.013
Mof_H 	H 	0.1411	0.947	0.8069	0.061
Mof_H 	H 	0.1061	0.0279	0.7996	0.235
Mof_C 	C 	0.208	0.382	0.915	-0.002
Mof_H 	H 	0.8978	0.6603	0.894	0.019
Mof_H 	H 	0.9237	0.6097	0.8631	0.148
Mof_C 	C 	0.8752	0.472	0.8803	0.208
Mof_H 	H 	0.8771	0.4906	0.855	0.001
Mof_H 	H 	0.8573	0.5284	0.8912	-0.049
Mof_H 	H 	0.8716	0.2947	0.9123	0.056
Mof_H 	H 	0.8399	0.3007	0.8835	-0.002
Mof_Zn	Zn	0.73017	0.58696	0.81312	1.208
Mof_Zn	Zn	0.23406	0.969	0.4763	1.153
Mof_O 	O 	0.689	0.6145	0.7843	-0.466
Mof_O 	O 	0.6944	0.434	0.7633	-0.216
Mof_O 	O 	0.2774	0.6419	0.7189	-0.405
Mof_O 	O 	0.279	0.4606	0.6995	-0.417
Mof_O 	O 	0.6964	0.7616	0.5088	-0.456
Mof_O 	O 	0.6934	0.5666	0.4925	-0.503
Mof_O 	O 	0.2826	0.9293	0.5263	-0.375
Mof_O 	O 	0.2818	0.9006	0.4705	-0.759
Mof_O 	O 	0.7203	0.4735	0.8537	-0.445
Mof_O 	O 	0.7005	0.2883	0.8621	-0.284
Mof_O 	O 	0.56833	0.3428	0.8389	-0.248
Mof_O 	O 	0.4725	0.3233	0.8347	-0.208
Mof_O 	O 	0.4047	0.4494	0.8307	0.061
Mof_O 	O 	0.3861	0.6953	0.8391	-0.26
Mof_O 	O 	0.2787	0.846	0.9127	-0.226
Mof_O 	O 	0.2975	0.036	0.9322	-0.335
Mof_O 	O 	0.4255	0.0536	0.9056	-0.239
Mof_O 	O 	0.5197	0.0685	0.8956	-0.176
Mof_O 	O 	0.5925	0.9768	0.8774	-0.17
Mof_O 	O 	0.6063	0.717	0.8854	-0.163
Mof_N 	N 	0.52208	0.3725	0.68743	-0.208
Mof_H 	H 	0.5447	0.3502	0.6858	0.111
Mof_N 	N 	0.46294	0.3874	0.6774	-0.115
Mof_N 	N 	0.5244	0.9054	0.5452	-0.212
Mof_H 	H 	0.547	0.9098	0.5519	0.128
Mof_N 	N 	0.4664	0.9449	0.5428	-0.137
Mof_C 	C 	0.6781	0.524	0.7685	0.171
Mof_C 	C 	0.5651	0.5333	0.7412	0.016
Mof_C 	C 	0.5858	0.4321	0.7309	-0.047
Mof_H 	H 	0.5748	0.3636	0.7192	0.039
Mof_C 	C 	0.6224	0.4312	0.7375	-0.015
Mof_H 	H 	0.6366	0.362	0.7304	0.049
Mof_C 	C 	0.6384	0.5314	0.7545	-0.02
Mof_C 	C 	0.6177	0.6326	0.7648	-0.027
Mof_H 	H 	0.6286	0.7011	0.7764	0.042
Mof_C 	C 	0.581	0.6335	0.7582	-0.059
Mof_H 	H 	0.5669	0.7027	0.7653	0.044
Mof_C 	C 	0.5247	0.5289	0.7368	-0.034
Mof_C 	C 	0.5077	0.4559	0.7114	0.054
Mof_C 	C 	0.4711	0.4645	0.7055	0.038
Mof_C 	C 	0.4483	0.5395	0.7262	-0.026
Mof_C 	C 	0.4652	0.6092	0.7512	-0.046
Mof_H 	H 	0.4513	0.6618	0.7659	0.044
Mof_C 	C 	0.5034	0.6047	0.7557	-0.042
Mof_H 	H 	0.5141	0.6574	0.7728	0.043
Mof_C 	C 	0.4086	0.5437	0.7215	0.061
Mof_C 	C 	0.3894	0.4316	0.7158	-0.095
Mof_H 	H 	0.4016	0.3542	0.7142	0.07
Mof_C 	C 	0.352	0.4371	0.7125	0.017
Mof_H 	H 	0.339	0.3625	0.7083	0.042
Mof_C 	C 	0.3339	0.5468	0.7152	-0.07
Mof_C 	C 	0.3516	0.6561	0.72	0.01
Mof_H 	H 	0.3388	0.7327	0.7201	0.056
Mof_C 	C 	0.3901	0.6551	0.7251	-0.096
Mof_H 	H 	0.4025	0.7297	0.7307	0.071
Mof_C 	C 	0.291	0.554	0.7066	0.392
Mof_C 	C 	0.4956	0.3333	0.6676	0.112
Mof_C 	C 	0.4973	0.2476	0.6381	-0.002
Mof_C 	C 	0.5242	0.1601	0.6366	-0.058
Mof_H 	H 	0.5417	0.1591	0.6546	0.059
Mof_C 	C 	0.5266	0.0739	0.6101	-0.026
Mof_H 	H 	0.5461	0.0167	0.6094	0.054
Mof_C 	C 	0.5	0.0721	0.5844	-0.032
Mof_C 	C 	0.4733	0.1614	0.5854	-0.02
Mof_H 	H 	0.4555	0.1633	0.5676	0.052
Mof_C 	C 	0.4723	0.2486	0.6123	-0.065
Mof_H 	H 	0.4538	0.3095	0.6127	0.091
Mof_C 	C 	0.497	0.9742	0.5572	0.136
Mof_C 	C 	0.678	0.669	0.4977	0.392
Mof_C 	C 	0.6397	0.6796	0.4951	-0.214
Mof_C 	C 	0.6171	0.5829	0.4954	0.135
Mof_H 	H 	0.6268	0.5012	0.4943	-0.007
Mof_C 	C 	0.5811	0.5953	0.4972	-0.196
Mof_H 	H 	0.5662	0.5236	0.4984	0.097
Mof_C 	C 	0.5659	0.7132	0.4972	0.134
Mof_C 	C 	0.5891	0.8134	0.496	-0.194
Mof_H 	H 	0.5796	0.8955	0.496	0.106
Mof_C 	C 	0.6248	0.7975	0.4949	0.128
Mof_H 	H 	0.64	0.8683	0.4939	0.005
Mof_C 	C 	0.5261	0.735	0.499	-0.069
Mof_C 	C 	0.5021	0.6659	0.4783	-0.024
Mof_H 	H 	0.5111	0.6002	0.4641	0.041
Mof_C 	C 	0.4661	0.6907	0.4781	-0.049
Mof_H 	H 	0.4512	0.6428	0.463	0.049
Mof_C 	C 	0.4502	0.7811	0.4984	-0.039
Mof_C 	C 	0.4735	0.8495	0.5197	0.039
Mof_C 	C 	0.5102	0.8252	0.5199	0.071
Mof_C 	C 	0.4103	0.8068	0.4987	0.098
Mof_C 	C 	0.3912	0.7993	0.4673	-0.149
Mof_H 	H 	0.4026	0.7795	0.4458	0.087
Mof_C 	C 	0.3528	0.8233	0.4694	0.082
Mof_H 	H 	0.3385	0.8132	0.4489	0.012
Mof_C 	C 	0.3365	0.8601	0.5	-0.203
Mof_C 	C 	0.3573	0.8723	0.5292	0.103
Mof_H 	H 	0.3466	0.9024	0.5502	0.014
Mof_C 	C 	0.3934	0.8424	0.5293	-0.162
Mof_H 	H 	0.4066	0.8464	0.5506	0.095
Mof_C 	C 	0.2993	0.8959	0.4994	0.412
Mof_C 	C 	0.6951	0.398	0.8586	0.332
Mof_C 	C 	0.6578	0.4497	0.8582	0.029
Mof_C 	C 	0.6294	0.3721	0.8495	-0.196
Mof_H 	H 	0.6334	0.2871	0.8437	0.114
Mof_C 	C 	0.5951	0.4215	0.8495	0.269
Mof_C 	C 	0.5899	0.5478	0.8565	-0.317
Mof_H 	H 	0.5664	0.5817	0.8561	0.156
Mof_C 	C 	0.6186	0.6232	0.8638	0.299
Mof_C 	C 	0.653	0.5764	0.8651	-0.22
Mof_H 	H 	0.6728	0.6286	0.8706	0.091
Mof_C 	C 	0.5325	0.3883	0.841	0.023
Mof_H 	H 	0.5268	0.4098	0.8656	0.041
Mof_H 	H 	0.5302	0.4647	0.8266	0.032
Mof_C 	C 	0.5074	0.293	0.8283	-0.001
Mof_H 	H 	0.513	0.2126	0.8398	0.057
Mof_H 	H 	0.5108	0.2819	0.8027	0.043
Mof_C 	C 	0.4501	0.324	0.8103	0.2
Mof_H 	H 	0.4604	0.3817	0.7926	-0.025
Mof_H 	H 	0.4516	0.2401	0.7998	0.046
Mof_C 	C 	0.4153	0.35	0.8104	-0.065
Mof_H 	H 	0.4077	0.3668	0.786	0.049
Mof_H 	H 	0.4022	0.2755	0.8185	-0.128
Mof_C 	C 	0.3778	0.4973	0.8184	-0.157
Mof_H 	H 	0.3837	0.5201	0.7939	-0.179
Mof_H 	H 	0.3594	0.431	0.8171	0.022
Mof_C 	C 	0.3623	0.5939	0.8322	0.123
Mof_H 	H 	0.3431	0.6229	0.8163	0.01
Mof_H 	H 	0.3508	0.5685	0.8545	0.011
Mof_C 	C 	0.3739	0.7903	0.8608	0.231
Mof_C 	C 	0.3444	0.8101	0.8766	-0.168
Mof_H 	H 	0.3256	0.7515	0.873	0.104
Mof_C 	C 	0.3371	0.9099	0.8987	-0.042
Mof_C 	C 	0.3655	0.9953	0.9089	-0.144
Mof_H 	H 	0.3615	0.0614	0.9251	0.088
Mof_C 	C 	0.3977	0.9749	0.8942	0.217
Mof_C 	C 	0.4033	0.8778	0.8699	-0.235
Mof_H 	H 	0.4262	0.8682	0.8593	0.115
Mof_C 	C 	0.3016	0.935	0.9159	0.491
Mof_C 	C 	0.4596	0.0202	0.8932	0.033
Mof_H 	H 	0.4645	0.9316	0.8985	0.035
Mof_H 	H 	0.4608	0.0318	0.8675	0.028
Mof_C 	C 	0.4866	0.1005	0.9106	-0.024
Mof_H 	H 	0.4868	0.085	0.9362	0.049
Mof_H 	H 	0.4811	0.1896	0.9065	0.059
Mof_C 	C 	0.5489	0.1246	0.9122	0.017
Mof_H 	H 	0.5445	0.215	0.9152	0.036
Mof_H 	H 	0.5528	0.0871	0.9356	0.033
Mof_C 	C 	0.5824	0.1022	0.8883	-0.033
Mof_H 	H 	0.6034	0.1384	0.9005	0.027
Mof_H 	H 	0.5788	0.1519	0.8667	-0.066
Mof_C 	C 	0.6145	0.918	0.9017	-0.19
Mof_H 	H 	0.6313	0.9802	0.9116	0.07
Mof_H 	H 	0.5995	0.8864	0.9212	0.113
Mof_C 	C 	0.6345	0.8188	0.8879	0.032
Mof_H 	H 	0.6444	0.8396	0.8646	0.035
Mof_H 	H 	0.6542	0.7944	0.9038	0.004
Mof_O 	O 	0.243	0.1461	0.4875	-1.312
Mof_H 	H 	0.2226	0.1838	0.4904	0.207
Mof_H 	H 	0.2546	0.1807	0.4703	0.232
Mof_Zn	Zn	0.2475	0.8182	0.4571	1.123
Mof_O 	O 	0.7019	0.515	0.7387	-0.175
Mof_O 	O 	0.4003	0.407	0.842	-0.236
Mof_O 	O 	0.282	0.771	0.915	-0.176
Mof_O 	O 	0.2814	0.988	0.924	-0.377
Mof_O 	O 	0.5909	0.9796	0.8974	-0.033
Mof_O 	O 	0.6121	0.7566	0.8634	-0.145
Mof_H 	H 	0.2727	0.661	0.5038	0.288
Mof_H 	H 	0.237	0.6214	0.4971	0.423
Mof_C 	C 	0.6788	0.556	0.7576	0.198
Mof_C 	C 	0.5649	0.5283	0.7417	0.017
Mof_C 	C 	0.5884	0.4906	0.7154	-0.034
Mof_H 	H 	0.5792	0.4581	0.694	0.035
Mof_C 	C 	0.6252	0.5005	0.7203	-0.017
Mof_H 	H 	0.6412	0.4747	0.7023	0.049
Mof_C 	C 	0.6386	0.5481	0.7515	-0.03
Mof_C 	C 	0.6152	0.5858	0.7778	0.004
Mof_H 	H 	0.6244	0.6183	0.7992	0.035
Mof_C 	C 	0.5784	0.5759	0.7729	-0.026
Mof_H 	H 	0.5624	0.6017	0.7909	0.039
Mof_C 	C 	0.4451	0.256	0.83	-0.151
Mof_H 	H 	0.4442	0.2395	0.8041	-0.039
Mof_H 	H 	0.4501	0.1754	0.8411	0.09
Mof_C 	C 	0.4121	0.288	0.839	0.183
Mof_H 	H 	0.3959	0.2465	0.8219	0.119
Mof_H 	H 	0.4077	0.2471	0.8618	-0.008
Mof_H 	H 	0.3589	0.447	0.8069	0.085
Mof_H 	H 	0.3939	0.5279	0.7996	0.262
Mof_C 	C 	0.292	0.882	0.915	-0.001
Mof_H 	H 	0.6022	0.1603	0.894	0.02
Mof_H 	H 	0.5763	0.1097	0.8631	0.143
Mof_C 	C 	0.6248	0.972	0.8803	0.199
Mof_H 	H 	0.6229	0.9906	0.855	0.005
Mof_H 	H 	0.6427	0.0284	0.8912	-0.048
Mof_H 	H 	0.6284	0.7947	0.9123	0.058
Mof_H 	H 	0.6601	0.8007	0.8835	-0
Mof_Zn	Zn	0.76983	0.41304	0.31312	1.208
Mof_Zn	Zn	0.26594	0.031	0.9763	1.153
Mof_O 	O 	0.811	0.3855	0.2843	-0.466
Mof_O 	O 	0.8056	0.566	0.2633	-0.216
Mof_O 	O 	0.2226	0.3581	0.2189	-0.405
Mof_O 	O 	0.221	0.5394	0.1995	-0.417
Mof_O 	O 	0.8036	0.2384	0.0088	-0.454
Mof_O 	O 	0.8066	0.4334	0.9925	-0.504
Mof_O 	O 	0.2174	0.0707	0.0263	-0.372
Mof_O 	O 	0.2182	0.0994	0.9705	-0.758
Mof_O 	O 	0.7797	0.5265	0.3537	-0.445
Mof_O 	O 	0.7995	0.7117	0.3621	-0.284
Mof_O 	O 	0.93167	0.6572	0.3389	-0.248
Mof_O 	O 	0.0275	0.6767	0.3347	-0.208
Mof_O 	O 	0.0953	0.5506	0.3307	0.061
Mof_O 	O 	0.1139	0.3047	0.3391	-0.26
Mof_O 	O 	0.2213	0.154	0.4127	-0.226
Mof_O 	O 	0.2025	0.964	0.4322	-0.334
Mof_O 	O 	0.0745	0.9464	0.4056	-0.239
Mof_O 	O 	0.9803	0.9315	0.3956	-0.176
Mof_O 	O 	0.9075	0.0232	0.3774	-0.171
Mof_O 	O 	0.8937	0.283	0.3854	-0.163
Mof_N 	N 	0.97792	0.6275	0.18743	-0.209
Mof_H 	H 	0.9553	0.6498	0.1858	0.111
Mof_N 	N 	0.03706	0.6126	0.1774	-0.115
Mof_N 	N 	0.9756	0.0946	0.0452	-0.213
Mof_H 	H 	0.953	0.0902	0.0519	0.128
Mof_N 	N 	0.0336	0.0551	0.0428	-0.137
Mof_C 	C 	0.8219	0.476	0.2685	0.171
Mof_C 	C 	0.9349	0.4667	0.2412	0.016
Mof_C 	C 	0.9142	0.5679	0.2309	-0.047
Mof_H 	H 	0.9252	0.6364	0.2192	0.039
Mof_C 	C 	0.8776	0.5688	0.2375	-0.015
Mof_H 	H 	0.8634	0.638	0.2304	0.049
Mof_C 	C 	0.8616	0.4686	0.2545	-0.02
Mof_C 	C 	0.8823	0.3674	0.2648	-0.027
Mof_H 	H 	0.8714	0.2989	0.2764	0.042
Mof_C 	C 	0.919	0.3665	0.2582	-0.059
Mof_H 	H 	0.9331	0.2973	0.2653	0.044
Mof_C 	C 	0.9753	0.4711	0.2368	-0.034
Mof_C 	C 	0.9923	0.5441	0.2114	0.053
Mof_C 	C 	0.0289	0.5355	0.2055	0.039
Mof_C 	C 	0.0517	0.4605	0.2262	-0.027
Mof_C 	C 	0.0348	0.3908	0.2512	-0.045
Mof_H 	H 	0.0487	0.3382	0.2659	0.044
Mof_C 	C 	0.9966	0.3953	0.2557	-0.042
Mof_H 	H 	0.9859	0.3426	0.2728	0.043
Mof_C 	C 	0.0914	0.4563	0.2215	0.061
Mof_C 	C 	0.1106	0.5684	0.2158	-0.095
Mof_H 	H 	0.0984	0.6458	0.2142	0.07
Mof_C 	C 	0.148	0.5629	0.2125	0.017
Mof_H 	H 	0.161	0.6375	0.2083	0.042
Mof_C 	C 	0.1661	0.4532	0.2152	-0.07
Mof_C 	C 	0.1484	0.3439	0.22	0.01
Mof_H 	H 	0.1612	0.2673	0.2201	0.055
Mof_C 	C 	0.1099	0.3449	0.2251	-0.096
Mof_H 	H 	0.0975	0.2703	0.2307	0.071
Mof_C 	C 	0.209	0.446	0.2066	0.392
Mof_C 	C 	0.0044	0.6667	0.1676	0.112
Mof_C 	C 	0.0027	0.7524	0.1381	-0.002
Mof_C 	C 	0.9758	0.8399	0.1366	-0.058
Mof_H 	H 	0.9583	0.8409	0.1546	0.059
Mof_C 	C 	0.9734	0.9261	0.1101	-0.027
Mof_H 	H 	0.9539	0.9833	0.1094	0.054
Mof_C 	C 	-5.02521e-34	0.9279	0.0844	-0.032
Mof_C 	C 	0.0267	0.8386	0.0854	-0.02
Mof_H 	H 	0.0445	0.8367	0.0676	0.052
Mof_C 	C 	0.0277	0.7514	0.1123	-0.065
Mof_H 	H 	0.0462	0.6905	0.1127	0.091
Mof_C 	C 	0.003	0.0258	0.0572	0.137
Mof_C 	C 	0.822	0.331	0.9977	0.39
Mof_C 	C 	0.8603	0.3204	0.9951	-0.213
Mof_C 	C 	0.8829	0.4171	0.9954	0.134
Mof_H 	H 	0.8732	0.4988	0.9943	-0.007
Mof_C 	C 	0.9189	0.4047	0.9972	-0.196
Mof_H 	H 	0.9338	0.4764	0.9984	0.097
Mof_C 	C 	0.9341	0.2868	0.9972	0.134
Mof_C 	C 	0.9109	0.1866	0.996	-0.194
Mof_H 	H 	0.9204	0.1045	0.996	0.106
Mof_C 	C 	0.8752	0.2025	0.9949	0.128
Mof_H 	H 	0.86	0.1317	0.9939	0.005
Mof_C 	C 	0.9739	0.265	0.999	-0.072
Mof_C 	C 	0.9979	0.3341	0.9783	-0.023
Mof_H 	H 	0.9889	0.3998	0.9641	0.041
Mof_C 	C 	0.0339	0.3093	0.9781	-0.05
Mof_H 	H 	0.0488	0.3572	0.963	0.049
Mof_C 	C 	0.0498	0.2189	0.9984	-0.039
Mof_C 	C 	0.0265	0.1505	0.0197	0.041
Mof_C 	C 	0.9898	0.1748	0.0199	0.073
Mof_C 	C 	0.0897	0.1932	0.9987	0.092
Mof_C 	C 	0.1088	0.2007	0.9673	-0.143
Mof_H 	H 	0.0974	0.2205	0.9458	0.086
Mof_C 	C 	0.1472	0.1767	0.9694	0.073
Mof_H 	H 	0.1615	0.1868	0.9489	0.015
Mof_C 	C 	0.1635	0.1399	-0	-0.193
Mof_C 	C 	0.1427	0.1277	0.0292	0.095
Mof_H 	H 	0.1534	0.0976	0.0502	0.017
Mof_C 	C 	0.1066	0.1576	0.0293	-0.154
Mof_H 	H 	0.0934	0.1536	0.0506	0.092
Mof_C 	C 	0.2007	0.1041	0.9994	0.404
Mof_C 	C 	0.8049	0.602	0.3586	0.332
Mof_C 	C 	0.8422	0.5503	0.3582	0.029
Mof_C 	C 	0.8706	0.6279	0.3495	-0.196
Mof_H 	H 	0.8666	0.7129	0.3437	0.114
Mof_C 	C 	0.9049	0.5785	0.3495	0.269
Mof_C 	C 	0.9101	0.4522	0.3565	-0.317
Mof_H 	H 	0.9336	0.4183	0.3561	0.156
Mof_C 	C 	0.8814	0.3768	0.3638	0.299
Mof_C 	C 	0.847	0.4236	0.3651	-0.22
Mof_H 	H 	0.8272	0.3714	0.3706	0.091
Mof_C 	C 	0.9675	0.6117	0.341	0.024
Mof_H 	H 	0.9732	0.5902	0.3656	0.041
Mof_H 	H 	0.9698	0.5353	0.3266	0.032
Mof_C 	C 	0.9926	0.707	0.3283	-0.001
Mof_H 	H 	0.987	0.7874	0.3398	0.057
Mof_H 	H 	0.9892	0.7181	0.3027	0.043
Mof_C 	C 	0.0499	0.676	0.3103	0.2
Mof_H 	H 	0.0396	0.6183	0.2926	-0.025
Mof_H 	H 	0.0484	0.7599	0.2998	0.047
Mof_C 	C 	0.0847	0.65	0.3104	-0.065
Mof_H 	H 	0.0923	0.6332	0.286	0.049
Mof_H 	H 	0.0978	0.7245	0.3185	-0.128
Mof_C 	C 	0.1222	0.5027	0.3184	-0.157
Mof_H 	H 	0.1163	0.4799	0.2939	-0.179
Mof_H 	H 	0.1406	0.569	0.3171	0.021
Mof_C 	C 	0.1377	0.4061	0.3322	0.123
Mof_H 	H 	0.1569	0.3771	0.3163	0.01
Mof_H 	H 	0.1492	0.4315	0.3545	0.011
Mof_C 	C 	0.1261	0.2097	0.3608	0.231
Mof_C 	C 	0.1556	0.1899	0.3766	-0.168
Mof_H 	H 	0.1744	0.2485	0.373	0.104
Mof_C 	C 	0.1629	0.0901	0.3987	-0.042
Mof_C 	C 	0.1345	0.0047	0.4089	-0.145
Mof_H 	H 	0.1385	0.9386	0.4251	0.088
Mof_C 	C 	0.1023	0.0251	0.3942	0.217
Mof_C 	C 	0.0967	0.1222	0.3699	-0.235
Mof_H 	H 	0.0738	0.1318	0.3593	0.115
Mof_C 	C 	0.1984	0.065	0.4159	0.491
Mof_C 	C 	0.0404	0.9798	0.3932	0.033
Mof_H 	H 	0.0355	0.0684	0.3985	0.035
Mof_H 	H 	0.0392	0.9682	0.3675	0.028
Mof_C 	C 	0.0134	0.8995	0.4106	-0.024
Mof_H 	H 	0.0132	0.915	0.4362	0.049
Mof_H 	H 	0.0189	0.8104	0.4065	0.059
Mof_C 	C 	0.9511	0.8754	0.4122	0.017
Mof_H 	H 	0.9555	0.785	0.4152	0.036
Mof_H 	H 	0.9472	0.9129	0.4356	0.033
Mof_C 	C 	0.9176	0.8978	0.3883	-0.033
Mof_H 	H 	0.8966	0.8616	0.4005	0.027
Mof_H 	H 	0.9212	0.8481	0.3667	-0.066
Mof_C 	C 	0.8855	0.082	0.4017	-0.191
Mof_H 	H 	0.8687	0.0198	0.4116	0.071
Mof_H 	H 	0.9005	0.1136	0.4212	0.114
Mof_C 	C 	0.8655	0.1812	0.3879	0.033
Mof_H 	H 	0.8556	0.1604	0.3646	0.035
Mof_H 	H 	0.8458	0.2056	0.4038	0.004
Mof_O 	O 	0.257	0.8539	0.9875	-1.314
Mof_H 	H 	0.2774	0.8162	0.9904	0.204
Mof_H 	H 	0.2454	0.8193	0.9703	0.233
Mof_Zn	Zn	0.2525	0.1818	0.9571	1.122
Mof_O 	O 	0.7981	0.485	0.2387	-0.175
Mof_O 	O 	0.0997	0.593	0.342	-0.236
Mof_O 	O 	0.218	0.229	0.415	-0.176
Mof_O 	O 	0.2186	0.012	0.424	-0.378
Mof_O 	O 	0.9091	0.0204	0.3974	-0.033
Mof_O 	O 	0.8879	0.2434	0.3634	-0.145
Mof_H 	H 	0.2273	0.339	0.0038	0.293
Mof_H 	H 	0.263	0.3786	0.9971	0.423
Mof_C 	C 	0.8212	0.444	0.2576	0.198
Mof_C 	C 	0.9351	0.4717	0.2417	0.017
Mof_C 	C 	0.9116	0.5094	0.2154	-0.034
Mof_H 	H 	0.9208	0.5419	0.194	0.035
Mof_C 	C 	0.8748	0.4995	0.2203	-0.017
Mof_H 	H 	0.8588	0.5253	0.2023	0.049
Mof_C 	C 	0.8614	0.4519	0.2515	-0.03
Mof_C 	C 	0.8848	0.4142	0.2778	0.004
Mof_H 	H 	0.8756	0.3817	0.2992	0.035
Mof_C 	C 	0.9216	0.4241	0.2729	-0.026
Mof_H 	H 	0.9376	0.3983	0.2909	0.039
Mof_C 	C 	0.0549	0.744	0.33	-0.152
Mof_H 	H 	0.0558	0.7605	0.3041	-0.039
Mof_H 	H 	0.0499	0.8246	0.3411	0.09
Mof_C 	C 	0.0879	0.712	0.339	0.183
Mof_H 	H 	0.1041	0.7535	0.3219	0.119
Mof_H 	H 	0.0923	0.7529	0.3618	-0.008
Mof_H 	H 	0.1411	0.553	0.3069	0.085
Mof_H 	H 	0.1061	0.4721	0.2996	0.263
Mof_C 	C 	0.208	0.118	0.415	-0.001
Mof_H 	H 	0.8978	0.8397	0.394	0.02
Mof_H 	H 	0.9237	0.8903	0.3631	0.144
Mof_C 	C 	0.8752	0.028	0.3803	0.2
Mof_H 	H 	0.8771	0.0094	0.355	0.005
Mof_H 	H 	0.8573	0.9716	0.3912	-0.048
Mof_H 	H 	0.8716	0.2053	0.4123	0.058
Mof_H 	H 	0.8399	0.1993	0.3835	-0
Mof_Zn	Zn	0.26983	0.08696	0.68688	1.207
Mof_Zn	Zn	0.76594	0.469	0.0237	1.154
Mof_O 	O 	0.311	0.1145	0.7157	-0.467
Mof_O 	O 	0.3056	0.934	0.7367	-0.212
Mof_O 	O 	0.7226	0.1419	0.7811	-0.404
Mof_O 	O 	0.721	0.9606	0.8005	-0.41
Mof_O 	O 	0.3036	0.2616	0.9912	-0.458
Mof_O 	O 	0.3066	0.0666	0.0075	-0.503
Mof_O 	O 	0.7174	0.4293	0.9737	-0.378
Mof_O 	O 	0.7182	0.4006	0.0295	-0.759
Mof_O 	O 	0.2797	0.9735	0.6463	-0.442
Mof_O 	O 	0.2995	0.7883	0.6379	-0.282
Mof_O 	O 	0.43167	0.8428	0.6611	-0.25
Mof_O 	O 	0.5275	0.8233	0.6653	-0.207
Mof_O 	O 	0.5953	0.9494	0.6693	0.053
Mof_O 	O 	0.6139	0.1953	0.6609	-0.253
Mof_O 	O 	0.7213	0.346	0.5873	-0.224
Mof_O 	O 	0.7025	0.536	0.5678	-0.329
Mof_O 	O 	0.5745	0.5536	0.5944	-0.238
Mof_O 	O 	0.4803	0.5685	0.6044	-0.173
Mof_O 	O 	0.4075	0.4768	0.6226	-0.176
Mof_O 	O 	0.3937	0.217	0.6146	-0.165
Mof_N 	N 	0.47792	0.8725	0.81257	-0.209
Mof_H 	H 	0.4553	0.8502	0.8142	0.112
Mof_N 	N 	0.53706	0.8874	0.8226	-0.115
Mof_N 	N 	0.4756	0.4054	0.9548	-0.211
Mof_H 	H 	0.453	0.4098	0.9481	0.127
Mof_N 	N 	0.5336	0.4449	0.9572	-0.137
Mof_C 	C 	0.3219	0.024	0.7315	0.177
Mof_C 	C 	0.4349	0.0333	0.7588	0.012
Mof_C 	C 	0.4142	0.9321	0.7691	-0
Mof_H 	H 	0.4252	0.8636	0.7808	0.025
Mof_C 	C 	0.3776	0.9312	0.7625	-0.024
Mof_H 	H 	0.3634	0.862	0.7696	0.053
Mof_C 	C 	0.3616	0.0314	0.7455	-0.021
Mof_C 	C 	0.3823	0.1326	0.7352	-0.017
Mof_H 	H 	0.3714	0.2011	0.7236	0.039
Mof_C 	C 	0.419	0.1335	0.7418	-0.043
Mof_H 	H 	0.4331	0.2027	0.7347	0.039
Mof_C 	C 	0.4753	0.0289	0.7632	-0.038
Mof_C 	C 	0.4923	0.9559	0.7886	0.058
Mof_C 	C 	0.5289	0.9645	0.7945	0.043
Mof_C 	C 	0.5517	0.0395	0.7738	-0.031
Mof_C 	C 	0.5348	0.1092	0.7488	-0.046
Mof_H 	H 	0.5487	0.1618	0.7341	0.044
Mof_C 	C 	0.4966	0.1047	0.7443	-0.042
Mof_H 	H 	0.4859	0.1574	0.7272	0.043
Mof_C 	C 	0.5914	0.0437	0.7785	0.057
Mof_C 	C 	0.6106	0.9316	0.7842	-0.091
Mof_H 	H 	0.5984	0.8542	0.7858	0.069
Mof_C 	C 	0.648	0.9371	0.7875	0.023
Mof_H 	H 	0.661	0.8625	0.7917	0.041
Mof_C 	C 	0.6661	0.0468	0.7848	-0.075
Mof_C 	C 	0.6484	0.1561	0.78	0.011
Mof_H 	H 	0.6612	0.2327	0.7799	0.055
Mof_C 	C 	0.6099	0.1551	0.7749	-0.096
Mof_H 	H 	0.5975	0.2297	0.7693	0.072
Mof_C 	C 	0.709	0.054	0.7934	0.385
Mof_C 	C 	0.5044	0.8333	0.8324	0.113
Mof_C 	C 	0.5027	0.7476	0.8619	-0.004
Mof_C 	C 	0.4758	0.6601	0.8634	-0.056
Mof_H 	H 	0.4583	0.6591	0.8454	0.059
Mof_C 	C 	0.4734	0.5739	0.8899	-0.028
Mof_H 	H 	0.4539	0.5167	0.8906	0.056
Mof_C 	C 	0.5	0.5721	0.9156	-0.028
Mof_C 	C 	0.5267	0.6614	0.9146	-0.022
Mof_H 	H 	0.5445	0.6633	0.9324	0.053
Mof_C 	C 	0.5277	0.7486	0.8877	-0.063
Mof_H 	H 	0.5462	0.8095	0.8873	0.091
Mof_C 	C 	0.503	0.4742	0.9428	0.133
Mof_C 	C 	0.322	0.169	0.0023	0.395
Mof_C 	C 	0.3603	0.1796	0.0049	-0.214
Mof_C 	C 	0.3829	0.0829	0.0046	0.136
Mof_H 	H 	0.3732	0.0012	0.0057	-0.007
Mof_C 	C 	0.4189	0.0953	0.0028	-0.195
Mof_H 	H 	0.4338	0.0236	0.0016	0.098
Mof_C 	C 	0.4341	0.2132	0.0028	0.134
Mof_C 	C 	0.4109	0.3134	0.004	-0.194
Mof_H 	H 	0.4204	0.3955	0.004	0.107
Mof_C 	C 	0.3752	0.2975	0.0051	0.129
Mof_H 	H 	0.36	0.3683	0.0061	0.005
Mof_C 	C 	0.4739	0.235	0.001	-0.067
Mof_C 	C 	0.4979	0.1659	0.0217	-0.024
Mof_H 	H 	0.4889	0.1002	0.0359	0.042
Mof_C 	C 	0.5339	0.1907	0.0219	-0.049
Mof_H 	H 	0.5488	0.1428	0.037	0.049
Mof_C 	C 	0.5498	0.2811	0.0016	-0.037
Mof_C 	C 	0.5265	0.3495	0.9803	0.038
Mof_C 	C 	0.4898	0.3252	0.9801	0.069
Mof_C 	C 	0.5897	0.3068	0.0013	0.1
Mof_C 	C 	0.6088	0.2993	0.0327	-0.149
Mof_H 	H 	0.5974	0.2795	0.0542	0.088
Mof_C 	C 	0.6472	0.3233	0.0306	0.082
Mof_H 	H 	0.6615	0.3132	0.0511	0.012
Mof_C 	C 	0.6635	0.3601	-0	-0.202
Mof_C 	C 	0.6427	0.3723	0.9708	0.101
Mof_H 	H 	0.6534	0.4024	0.9498	0.014
Mof_C 	C 	0.6066	0.3424	0.9707	-0.164
Mof_H 	H 	0.5934	0.3464	0.9494	0.095
Mof_C 	C 	0.7007	0.3959	0.0006	0.414
Mof_C 	C 	0.3049	0.898	0.6414	0.328
Mof_C 	C 	0.3422	0.9497	0.6418	0.039
Mof_C 	C 	0.3706	0.8721	0.6505	-0.203
Mof_H 	H 	0.3666	0.7871	0.6563	0.117
Mof_C 	C 	0.4049	0.9215	0.6505	0.279
Mof_C 	C 	0.4101	0.0478	0.6435	-0.329
Mof_H 	H 	0.4336	0.0817	0.6439	0.159
Mof_C 	C 	0.3814	0.1232	0.6362	0.307
Mof_C 	C 	0.347	0.0764	0.6349	-0.232
Mof_H 	H 	0.3272	0.1286	0.6294	0.094
Mof_C 	C 	0.4675	0.8883	0.659	0.024
Mof_H 	H 	0.4732	0.9098	0.6344	0.042
Mof_H 	H 	0.4698	0.9647	0.6734	0.033
Mof_C 	C 	0.4926	0.793	0.6717	-0.001
Mof_H 	H 	0.487	0.7126	0.6602	0.058
Mof_H 	H 	0.4892	0.7819	0.6973	0.043
Mof_C 	C 	0.5499	0.824	0.6897	0.219
Mof_H 	H 	0.5396	0.8817	0.7074	-0.03
Mof_H 	H 	0.5484	0.7401	0.7002	0.052
Mof_C 	C 	0.5847	0.85	0.6896	-0.072
Mof_H 	H 	0.5923	0.8668	0.714	0.053
Mof_H 	H 	0.5978	0.7755	0.6815	-0.132
Mof_C 	C 	0.6222	0.9973	0.6816	-0.113
Mof_H 	H 	0.6163	0.0201	0.7061	-0.166
Mof_H 	H 	0.6406	0.931	0.6829	0.032
Mof_C 	C 	0.6377	0.0939	0.6678	0.088
Mof_H 	H 	0.6569	0.1229	0.6837	0.02
Mof_H 	H 	0.6492	0.0685	0.6455	0.019
Mof_C 	C 	0.6261	0.2903	0.6392	0.227
Mof_C 	C 	0.6556	0.3101	0.6234	-0.166
Mof_H 	H 	0.6744	0.2515	0.627	0.103
Mof_C 	C 	0.6629	0.4099	0.6013	-0.043
Mof_C 	C 	0.6345	0.4953	0.5911	-0.148
Mof_H 	H 	0.6385	0.5614	0.5749	0.091
Mof_C 	C 	0.6023	0.4749	0.6058	0.215
Mof_C 	C 	0.5967	0.3778	0.6301	-0.234
Mof_H 	H 	0.5738	0.3682	0.6407	0.114
Mof_C 	C 	0.6984	0.435	0.5841	0.492
Mof_C 	C 	0.5404	0.5202	0.6068	0.04
Mof_H 	H 	0.5355	0.4316	0.6015	0.031
Mof_H 	H 	0.5392	0.5318	0.6325	0.027
Mof_C 	C 	0.5134	0.6005	0.5894	-0.028
Mof_H 	H 	0.5132	0.585	0.5638	0.051
Mof_H 	H 	0.5189	0.6896	0.5935	0.06
Mof_C 	C 	0.4511	0.6246	0.5878	0.016
Mof_H 	H 	0.4555	0.715	0.5848	0.037
Mof_H 	H 	0.4472	0.5871	0.5644	0.034
Mof_C 	C 	0.4176	0.6022	0.6117	-0.032
Mof_H 	H 	0.3966	0.6384	0.5995	0.028
Mof_H 	H 	0.4212	0.6519	0.6333	-0.07
Mof_C 	C 	0.3855	0.418	0.5983	-0.205
Mof_H 	H 	0.3687	0.4802	0.5884	0.072
Mof_H 	H 	0.4005	0.3864	0.5788	0.117
Mof_C 	C 	0.3655	0.3188	0.6121	0.043
Mof_H 	H 	0.3556	0.3396	0.6354	0.032
Mof_H 	H 	0.3458	0.2944	0.5962	0.002
Mof_O 	O 	0.757	0.6461	0.0125	-1.31
Mof_H 	H 	0.7774	0.6838	0.0096	0.21
Mof_H 	H 	0.7454	0.6807	0.0297	0.231
Mof_Zn	Zn	0.7525	0.3182	0.0429	1.123
Mof_O 	O 	0.2981	0.015	0.7613	-0.177
Mof_O 	O 	0.5997	0.907	0.658	-0.236
Mof_O 	O 	0.718	0.271	0.585	-0.177
Mof_O 	O 	0.7186	0.488	0.576	-0.384
Mof_O 	O 	0.4091	0.4796	0.6026	-0.028
Mof_O 	O 	0.3879	0.2566	0.6366	-0.147
Mof_H 	H 	0.7273	0.161	0.9962	0.282
Mof_H 	H 	0.763	0.1214	0.0029	0.423
Mof_C 	C 	0.3212	0.056	0.7424	0.188
Mof_C 	C 	0.4351	0.0283	0.7583	0.015
Mof_C 	C 	0.4116	0.9906	0.7846	-0.069
Mof_H 	H 	0.4208	0.9581	0.806	0.047
Mof_C 	C 	0.3748	0.0005	0.7797	-0.017
Mof_H 	H 	0.3588	0.9747	0.7977	0.052
Mof_C 	C 	0.3614	0.0481	0.7485	-0.029
Mof_C 	C 	0.3848	0.0858	0.7222	-0.009
Mof_H 	H 	0.3756	0.1183	0.7008	0.039
Mof_C 	C 	0.4216	0.0759	0.7271	-0.039
Mof_H 	H 	0.4376	0.1017	0.7091	0.043
Mof_C 	C 	0.5549	0.756	0.67	-0.17
Mof_H 	H 	0.5558	0.7395	0.6959	-0.046
Mof_H 	H 	0.5499	0.6754	0.6589	0.097
Mof_C 	C 	0.5879	0.788	0.661	0.201
Mof_H 	H 	0.6041	0.7465	0.6781	0.119
Mof_H 	H 	0.5923	0.7471	0.6382	-0.013
Mof_H 	H 	0.6411	0.947	0.6931	0.061
Mof_H 	H 	0.6061	0.0279	0.7004	0.236
Mof_C 	C 	0.708	0.382	0.585	-0.002
Mof_H 	H 	0.3978	0.6603	0.606	0.019
Mof_H 	H 	0.4237	0.6097	0.6369	0.148
Mof_C 	C 	0.3752	0.472	0.6197	0.208
Mof_H 	H 	0.3771	0.4906	0.645	0.001
Mof_H 	H 	0.3573	0.5284	0.6088	-0.049
Mof_H 	H 	0.3716	0.2947	0.5877	0.056
Mof_H 	H 	0.3399	0.3007	0.6165	-0.002
Mof_Zn	Zn	0.23017	0.91304	0.18688	1.207
Mof_Zn	Zn	0.73406	0.531	0.5237	1.153
Mof_O 	O 	0.189	0.8855	0.2157	-0.467
Mof_O 	O 	0.1944	0.066	0.2367	-0.212
Mof_O 	O 	0.7774	0.8581	0.2811	-0.404
Mof_O 	O 	0.779	0.0394	0.3005	-0.41
Mof_O 	O 	0.1964	0.7384	0.4912	-0.456
Mof_O 	O 	0.1934	0.9334	0.5075	-0.503
Mof_O 	O 	0.7826	0.5707	0.4737	-0.376
Mof_O 	O 	0.7818	0.5994	0.5295	-0.759
Mof_O 	O 	0.2203	0.0265	0.1463	-0.442
Mof_O 	O 	0.2005	0.2117	0.1379	-0.282
Mof_O 	O 	0.06833	0.1572	0.1611	-0.25
Mof_O 	O 	0.9725	0.1767	0.1653	-0.208
Mof_O 	O 	0.9047	0.0506	0.1693	0.053
Mof_O 	O 	0.8861	0.8047	0.1609	-0.253
Mof_O 	O 	0.7787	0.654	0.0873	-0.224
Mof_O 	O 	0.7975	0.464	0.0678	-0.328
Mof_O 	O 	0.9255	0.4464	0.0944	-0.238
Mof_O 	O 	0.0197	0.4315	0.1044	-0.173
Mof_O 	O 	0.0925	0.5232	0.1226	-0.176
Mof_O 	O 	0.1063	0.783	0.1146	-0.165
Mof_N 	N 	0.02208	0.1275	0.31257	-0.209
Mof_H 	H 	0.0447	0.1498	0.3142	0.112
Mof_N 	N 	0.96294	0.1126	0.3226	-0.115
Mof_N 	N 	0.0244	0.5946	0.4548	-0.212
Mof_H 	H 	0.047	0.5902	0.4481	0.127
Mof_N 	N 	0.9664	0.5551	0.4572	-0.137
Mof_C 	C 	0.1781	0.976	0.2315	0.177
Mof_C 	C 	0.0651	0.9667	0.2588	0.012
Mof_C 	C 	0.0858	0.0679	0.2691	-0.001
Mof_H 	H 	0.0748	0.1364	0.2808	0.025
Mof_C 	C 	0.1224	0.0688	0.2625	-0.024
Mof_H 	H 	0.1366	0.138	0.2696	0.053
Mof_C 	C 	0.1384	0.9686	0.2455	-0.021
Mof_C 	C 	0.1177	0.8674	0.2352	-0.017
Mof_H 	H 	0.1286	0.7989	0.2236	0.039
Mof_C 	C 	0.081	0.8665	0.2418	-0.043
Mof_H 	H 	0.0669	0.7973	0.2347	0.039
Mof_C 	C 	0.0247	0.9711	0.2632	-0.038
Mof_C 	C 	0.0077	0.0441	0.2886	0.058
Mof_C 	C 	0.9711	0.0355	0.2945	0.042
Mof_C 	C 	0.9483	0.9605	0.2738	-0.03
Mof_C 	C 	0.9652	0.8908	0.2488	-0.047
Mof_H 	H 	0.9513	0.8382	0.2341	0.044
Mof_C 	C 	0.0034	0.8953	0.2443	-0.041
Mof_H 	H 	0.0141	0.8426	0.2272	0.043
Mof_C 	C 	0.9086	0.9563	0.2785	0.057
Mof_C 	C 	0.8894	0.0684	0.2842	-0.091
Mof_H 	H 	0.9016	0.1458	0.2858	0.069
Mof_C 	C 	0.852	0.0629	0.2875	0.023
Mof_H 	H 	0.839	0.1375	0.2917	0.041
Mof_C 	C 	0.8339	0.9532	0.2848	-0.075
Mof_C 	C 	0.8516	0.8439	0.28	0.011
Mof_H 	H 	0.8388	0.7673	0.2799	0.055
Mof_C 	C 	0.8901	0.8449	0.2749	-0.096
Mof_H 	H 	0.9025	0.7703	0.2693	0.072
Mof_C 	C 	0.791	0.946	0.2934	0.385
Mof_C 	C 	0.9956	0.1667	0.3324	0.113
Mof_C 	C 	0.9973	0.2524	0.3619	-0.005
Mof_C 	C 	0.0242	0.3399	0.3634	-0.054
Mof_H 	H 	0.0417	0.3409	0.3454	0.059
Mof_C 	C 	0.0266	0.4261	0.3899	-0.029
Mof_H 	H 	0.0461	0.4833	0.3906	0.057
Mof_C 	C 	1.59592e-33	0.4279	0.4156	-0.027
Mof_C 	C 	0.9733	0.3386	0.4146	-0.024
Mof_H 	H 	0.9555	0.3367	0.4324	0.054
Mof_C 	C 	0.9723	0.2514	0.3877	-0.062
Mof_H 	H 	0.9538	0.1905	0.3873	0.091
Mof_C 	C 	0.997	0.5258	0.4428	0.133
Mof_C 	C 	0.178	0.831	0.5023	0.393
Mof_C 	C 	0.1397	0.8204	0.5049	-0.214
Mof_C 	C 	0.1171	0.9171	0.5046	0.135
Mof_H 	H 	0.1268	0.9988	0.5057	-0.007
Mof_C 	C 	0.0811	0.9047	0.5028	-0.196
Mof_H 	H 	0.0662	0.9764	0.5016	0.098
Mof_C 	C 	0.0659	0.7868	0.5028	0.134
Mof_C 	C 	0.0891	0.6866	0.504	-0.194
Mof_H 	H 	0.0796	0.6045	0.504	0.106
Mof_C 	C 	0.1248	0.7025	0.5051	0.128
Mof_H 	H 	0.14	0.6317	0.5061	0.005
Mof_C 	C 	0.0261	0.765	0.501	-0.07
Mof_C 	C 	0.0021	0.8341	0.5217	-0.023
Mof_H 	H 	0.0111	0.8998	0.5359	0.041
Mof_C 	C 	0.9661	0.8093	0.5219	-0.05
Mof_H 	H 	0.9512	0.8572	0.537	0.049
Mof_C 	C 	0.9502	0.7189	0.5016	-0.038
Mof_C 	C 	0.9735	0.6505	0.4803	0.039
Mof_C 	C 	0.0102	0.6748	0.4801	0.071
Mof_C 	C 	0.9103	0.6932	0.5013	0.098
Mof_C 	C 	0.8912	0.7007	0.5327	-0.149
Mof_H 	H 	0.9026	0.7205	0.5542	0.088
Mof_C 	C 	0.8528	0.6767	0.5306	0.082
Mof_H 	H 	0.8385	0.6868	0.5511	0.012
Mof_C 	C 	0.8365	0.6399	0.5	-0.203
Mof_C 	C 	0.8573	0.6277	0.4708	0.103
Mof_H 	H 	0.8466	0.5976	0.4498	0.014
Mof_C 	C 	0.8934	0.6576	0.4707	-0.162
Mof_H 	H 	0.9066	0.6536	0.4494	0.094
Mof_C 	C 	0.7993	0.6041	0.5006	0.412
Mof_C 	C 	0.1951	0.102	0.1414	0.328
Mof_C 	C 	0.1578	0.0503	0.1418	0.039
Mof_C 	C 	0.1294	0.1279	0.1505	-0.203
Mof_H 	H 	0.1334	0.2129	0.1563	0.117
Mof_C 	C 	0.0951	0.0785	0.1505	0.279
Mof_C 	C 	0.0899	0.9522	0.1435	-0.329
Mof_H 	H 	0.0664	0.9183	0.1439	0.159
Mof_C 	C 	0.1186	0.8768	0.1362	0.307
Mof_C 	C 	0.153	0.9236	0.1349	-0.232
Mof_H 	H 	0.1728	0.8714	0.1294	0.094
Mof_C 	C 	0.0325	0.1117	0.159	0.024
Mof_H 	H 	0.0268	0.0902	0.1344	0.042
Mof_H 	H 	0.0302	0.0353	0.1734	0.034
Mof_C 	C 	0.0074	0.207	0.1717	-0.001
Mof_H 	H 	0.013	0.2874	0.1602	0.058
Mof_H 	H 	0.0108	0.2181	0.1973	0.043
Mof_C 	C 	0.9501	0.176	0.1897	0.22
Mof_H 	H 	0.9604	0.1183	0.2074	-0.03
Mof_H 	H 	0.9516	0.2599	0.2002	0.052
Mof_C 	C 	0.9153	0.15	0.1896	-0.073
Mof_H 	H 	0.9077	0.1332	0.214	0.054
Mof_H 	H 	0.9022	0.2245	0.1815	-0.132
Mof_C 	C 	0.8778	0.0027	0.1816	-0.112
Mof_H 	H 	0.8837	0.9799	0.2061	-0.166
Mof_H 	H 	0.8594	0.069	0.1829	0.032
Mof_C 	C 	0.8623	0.9061	0.1678	0.087
Mof_H 	H 	0.8431	0.8771	0.1837	0.02
Mof_H 	H 	0.8508	0.9315	0.1455	0.019
Mof_C 	C 	0.8739	0.7097	0.1392	0.227
Mof_C 	C 	0.8444	0.6899	0.1234	-0.166
Mof_H 	H 	0.8256	0.7485	0.127	0.103
Mof_C 	C 	0.8371	0.5901	0.1013	-0.043
Mof_C 	C 	0.8655	0.5047	0.0911	-0.148
Mof_H 	H 	0.8615	0.4386	0.0749	0.091
Mof_C 	C 	0.8977	0.5251	0.1058	0.216
Mof_C 	C 	0.9033	0.6222	0.1301	-0.234
Mof_H 	H 	0.9262	0.6318	0.1407	0.114
Mof_C 	C 	0.8016	0.565	0.0841	0.492
Mof_C 	C 	0.9596	0.4798	0.1068	0.041
Mof_H 	H 	0.9645	0.5684	0.1015	0.031
Mof_H 	H 	0.9608	0.4682	0.1325	0.027
Mof_C 	C 	0.9866	0.3995	0.0894	-0.029
Mof_H 	H 	0.9868	0.415	0.0638	0.051
Mof_H 	H 	0.9811	0.3104	0.0935	0.061
Mof_C 	C 	0.0489	0.3754	0.0878	0.015
Mof_H 	H 	0.0445	0.285	0.0848	0.037
Mof_H 	H 	0.0528	0.4129	0.0644	0.034
Mof_C 	C 	0.0824	0.3978	0.1117	-0.032
Mof_H 	H 	0.1034	0.3616	0.0995	0.028
Mof_H 	H 	0.0788	0.3481	0.1333	-0.07
Mof_C 	C 	0.1145	0.582	0.0983	-0.205
Mof_H 	H 	0.1313	0.5198	0.0884	0.072
Mof_H 	H 	0.0995	0.6136	0.0788	0.117
Mof_C 	C 	0.1345	0.6812	0.1121	0.043
Mof_H 	H 	0.1444	0.6604	0.1354	0.032
Mof_H 	H 	0.1542	0.7056	0.0962	0.002
Mof_O 	O 	0.743	0.3539	0.5125	-1.313
Mof_H 	H 	0.7226	0.3162	0.5096	0.207
Mof_H 	H 	0.7546	0.3193	0.5297	0.232
Mof_Zn	Zn	0.7475	0.6818	0.5429	1.123
Mof_O 	O 	0.2019	0.985	0.2613	-0.177
Mof_O 	O 	0.9003	0.093	0.158	-0.236
Mof_O 	O 	0.782	0.729	0.085	-0.177
Mof_O 	O 	0.7814	0.512	0.076	-0.384
Mof_O 	O 	0.0909	0.5204	0.1026	-0.028
Mof_O 	O 	0.1121	0.7434	0.1366	-0.147
Mof_H 	H 	0.7727	0.839	0.4962	0.287
Mof_H 	H 	0.737	0.8786	0.5029	0.423
Mof_C 	C 	0.1788	0.944	0.2424	0.188
Mof_C 	C 	0.0649	0.9717	0.2583	0.015
Mof_C 	C 	0.0884	0.0094	0.2846	-0.068
Mof_H 	H 	0.0792	0.0419	0.306	0.046
Mof_C 	C 	0.1252	0.9995	0.2797	-0.017
Mof_H 	H 	0.1412	0.0253	0.2977	0.052
Mof_C 	C 	0.1386	0.9519	0.2485	-0.029
Mof_C 	C 	0.1152	0.9142	0.2222	-0.009
Mof_H 	H 	0.1244	0.8817	0.2008	0.039
Mof_C 	C 	0.0784	0.9241	0.2271	-0.039
Mof_H 	H 	0.0624	0.8983	0.2091	0.043
Mof_C 	C 	0.9451	0.244	0.17	-0.171
Mof_H 	H 	0.9442	0.2605	0.1959	-0.046
Mof_H 	H 	0.9501	0.3246	0.1589	0.097
Mof_C 	C 	0.9121	0.212	0.161	0.202
Mof_H 	H 	0.8959	0.2535	0.1781	0.119
Mof_H 	H 	0.9077	0.2529	0.1382	-0.013
Mof_H 	H 	0.8589	0.053	0.1931	0.061
Mof_H 	H 	0.8939	0.9721	0.2004	0.236
Mof_C 	C 	0.792	0.618	0.085	-0.002
Mof_H 	H 	0.1022	0.3397	0.106	0.019
Mof_H 	H 	0.0763	0.3903	0.1369	0.148
Mof_C 	C 	0.1248	0.528	0.1197	0.208
Mof_H 	H 	0.1229	0.5094	0.145	0.001
Mof_H 	H 	0.1427	0.4716	0.1088	-0.049
Mof_H 	H 	0.1284	0.7053	0.0877	0.056
Mof_H 	H 	0.1601	0.6993	0.1165	-0.002
_end
