# CIF file generated by openbabel 2.4.1, see http://openbabel.sf.net
data_I
_chemical_name_common 'image0'
_cell_length_a 26.69
_cell_length_b 26.69
_cell_length_c 26.38
_cell_angle_alpha 90
_cell_angle_beta 90
_cell_angle_gamma 90
_space_group_name_H-M_alt 'P 1'
_space_group_name_Hall 'P 1'
loop_
    _symmetry_equiv_pos_as_xyz
    x,y,z
loop_
    _atom_site_label
    _atom_site_type_symbol
    _atom_site_fract_x
    _atom_site_fract_y
    _atom_site_fract_z
    _atom_site_occupancy
    N1      N    0.71329   0.88605   0.19129   1.000
    O1      O    0.93249   0.97246   0.22647   1.000
    O2      O    0.93000   0.97682   0.14201   1.000
    O3      O    0.56517   0.01214   0.05223   1.000
    O4      O    0.52587   0.93712   0.05185   1.000
    C1      C    0.91126   0.96717   0.18445   1.000
    C2      C    0.85886   0.94677   0.18544   1.000
    C3      C    0.83226   0.93929   0.14161   1.000
    H1      H    0.84660   0.94740   0.11060   1.000
    C4      C    0.78413   0.91968   0.14318   1.000
    H2      H    0.76640   0.91450   0.11330   1.000
    C5      C    0.76258   0.90791   0.18940   1.000
    C6      C    0.78867   0.91557   0.23337   1.000
    H3      H    0.77400   0.90810   0.26440   1.000
    C7      C    0.83729   0.93455   0.23158   1.000
    H4      H    0.85530   0.93900   0.26140   1.000
    C8      C    0.67474   0.90635   0.16201   1.000
    C9      C    0.67243   0.95683   0.15168   1.000
    H5      H    0.69650   0.97800   0.16550   1.000
    C10     C    0.63577   0.97662   0.12170   1.000
    H6      H    0.63510   0.01090   0.11540   1.000
    C11     C    0.59952   0.94569   0.10046   1.000
    C12     C    0.60062   0.89511   0.11109   1.000
    H7      H    0.57600   0.87430   0.09780   1.000
    C13     C    0.63785   0.87508   0.14113   1.000
    H8      H    0.63850   0.84080   0.14760   1.000
    C14     C    0.56018   0.96659   0.06520   1.000
    C15     C    0.70695   0.84220   0.22073   1.000
    C16     C    0.74352   0.80580   0.22120   1.000
    H9      H    0.77250   0.80990   0.20210   1.000
    C17     C    0.96860   0.95850   0.02880   1.000
    H10     H    0.93450   0.96220   0.04100   1.000
    H11     H    0.98140   0.92670   0.04100   1.000
    H12     H    0.51380   0.15810   0.02960   1.000
    H13     H    0.55210   0.22590   0.02970   1.000
    H14     H    0.62850   0.08870   0.02970   1.000
    H15     H    0.66760   0.15420   0.97040   1.000
    C18     C    0.57530   0.13010   0.05160   1.000
    H16     H    0.59430   0.10460   0.06930   1.000
    H17     H    0.54450   0.13630   0.07000   1.000
    C19     C    0.60540   0.17760   0.04690   1.000
    H18     H    0.58780   0.20270   0.06660   1.000
    H19     H    0.63680   0.17140   0.06430   1.000
    C20     C    0.04610   0.00100   0.47370   1.000
    H20     H    0.07360   0.98140   0.48320   1.000
    C21     C    0.03200   0.03400   0.47370   1.000
    H21     H    0.03640   0.06700   0.48310   1.000
    N2      N    0.00710   0.01420   0.31390   1.000
    C22     C    0.99980   0.98750   0.35990   1.000
    H22     H    0.98810   0.95480   0.36290   1.000
    N3      N    0.01340   0.01960   0.40060   1.000
    C23     C    0.02910   0.06610   0.37980   1.000
    H23     H    0.04000   0.09380   0.39800   1.000
    C24     C    0.02520   0.06270   0.32620   1.000
    H24     H    0.03320   0.08790   0.30320   1.000
    C25     C    0.94900   0.99360   0.02900   1.000
    H25     H    0.92790   0.02060   0.04130   1.000
    N4      N    0.28671   0.11395   0.19129   1.000
    O5      O    0.06751   0.02754   0.22647   1.000
    O6      O    0.07000   0.02318   0.14201   1.000
    O7      O    0.43483   0.98786   0.05223   1.000
    O8      O    0.47413   0.06288   0.05185   1.000
    C26     C    0.08874   0.03283   0.18445   1.000
    C27     C    0.14114   0.05323   0.18544   1.000
    C28     C    0.16774   0.06071   0.14161   1.000
    H26     H    0.15340   0.05260   0.11060   1.000
    C29     C    0.21587   0.08032   0.14318   1.000
    H27     H    0.23360   0.08550   0.11330   1.000
    C30     C    0.23742   0.09209   0.18940   1.000
    C31     C    0.21133   0.08443   0.23337   1.000
    H28     H    0.22600   0.09190   0.26440   1.000
    C32     C    0.16271   0.06545   0.23158   1.000
    H29     H    0.14470   0.06100   0.26140   1.000
    C33     C    0.32526   0.09365   0.16201   1.000
    C34     C    0.32757   0.04317   0.15168   1.000
    H30     H    0.30350   0.02200   0.16550   1.000
    C35     C    0.36423   0.02338   0.12170   1.000
    H31     H    0.36490   0.98910   0.11540   1.000
    C36     C    0.40048   0.05431   0.10046   1.000
    C37     C    0.39938   0.10489   0.11109   1.000
    H32     H    0.42400   0.12570   0.09780   1.000
    C38     C    0.36215   0.12492   0.14113   1.000
    H33     H    0.36150   0.15920   0.14760   1.000
    C39     C    0.43982   0.03341   0.06520   1.000
    C40     C    0.29305   0.15780   0.22073   1.000
    C41     C    0.25648   0.19420   0.22120   1.000
    H34     H    0.22750   0.19010   0.20210   1.000
    C42     C    0.03140   0.04150   0.02880   1.000
    H35     H    0.06550   0.03780   0.04100   1.000
    H36     H    0.01860   0.07330   0.04100   1.000
    H37     H    0.48620   0.84190   0.02960   1.000
    H38     H    0.44790   0.77410   0.02970   1.000
    H39     H    0.37150   0.91130   0.02970   1.000
    H40     H    0.33240   0.84580   0.97040   1.000
    C43     C    0.42470   0.86990   0.05160   1.000
    H41     H    0.40570   0.89540   0.06930   1.000
    H42     H    0.45550   0.86370   0.07000   1.000
    C44     C    0.39460   0.82240   0.04690   1.000
    H43     H    0.41220   0.79730   0.06660   1.000
    H44     H    0.36320   0.82860   0.06430   1.000
    C45     C    0.95390   0.99900   0.47370   1.000
    H45     H    0.92640   0.01860   0.48320   1.000
    C46     C    0.96800   0.96600   0.47370   1.000
    H46     H    0.96360   0.93300   0.48310   1.000
    N5      N    0.99290   0.98580   0.31390   1.000
    C47     C    0.00020   0.01250   0.35990   1.000
    H47     H    0.01190   0.04520   0.36290   1.000
    N6      N    0.98660   0.98040   0.40060   1.000
    C48     C    0.97090   0.93390   0.37980   1.000
    H48     H    0.96000   0.90620   0.39800   1.000
    C49     C    0.97480   0.93730   0.32620   1.000
    H49     H    0.96680   0.91210   0.30320   1.000
    C50     C    0.05100   0.00640   0.02900   1.000
    H50     H    0.07210   0.97940   0.04130   1.000
    N7      N    0.11395   0.71329   0.19129   1.000
    O9      O    0.02754   0.93249   0.22647   1.000
    O10     O    0.02318   0.93000   0.14201   1.000
    O11     O    0.98786   0.56517   0.05223   1.000
    O12     O    0.06288   0.52587   0.05185   1.000
    C51     C    0.03283   0.91126   0.18445   1.000
    C52     C    0.05323   0.85886   0.18544   1.000
    C53     C    0.06071   0.83226   0.14161   1.000
    H51     H    0.05260   0.84660   0.11060   1.000
    C54     C    0.08032   0.78413   0.14318   1.000
    H52     H    0.08550   0.76640   0.11330   1.000
    C55     C    0.09209   0.76258   0.18940   1.000
    C56     C    0.08443   0.78867   0.23337   1.000
    H53     H    0.09190   0.77400   0.26440   1.000
    C57     C    0.06545   0.83729   0.23158   1.000
    H54     H    0.06100   0.85530   0.26140   1.000
    C58     C    0.09365   0.67474   0.16201   1.000
    C59     C    0.04317   0.67243   0.15168   1.000
    H55     H    0.02200   0.69650   0.16550   1.000
    C60     C    0.02338   0.63577   0.12170   1.000
    H56     H    0.98910   0.63510   0.11540   1.000
    C61     C    0.05431   0.59952   0.10046   1.000
    C62     C    0.10489   0.60062   0.11109   1.000
    H57     H    0.12570   0.57600   0.09780   1.000
    C63     C    0.12492   0.63785   0.14113   1.000
    H58     H    0.15920   0.63850   0.14760   1.000
    C64     C    0.03341   0.56018   0.06520   1.000
    C65     C    0.15780   0.70695   0.22073   1.000
    C66     C    0.19420   0.74352   0.22120   1.000
    H59     H    0.19010   0.77250   0.20210   1.000
    C67     C    0.04150   0.96860   0.02880   1.000
    H60     H    0.03780   0.93450   0.04100   1.000
    H61     H    0.07330   0.98140   0.04100   1.000
    H62     H    0.84190   0.51380   0.02960   1.000
    H63     H    0.77410   0.55210   0.02970   1.000
    H64     H    0.91130   0.62850   0.02970   1.000
    H65     H    0.84580   0.66760   0.97040   1.000
    C68     C    0.86990   0.57530   0.05160   1.000
    H66     H    0.89540   0.59430   0.06930   1.000
    H67     H    0.86370   0.54450   0.07000   1.000
    C69     C    0.82240   0.60540   0.04690   1.000
    H68     H    0.79730   0.58780   0.06660   1.000
    H69     H    0.82860   0.63680   0.06430   1.000
    C70     C    0.99900   0.04610   0.47370   1.000
    H70     H    0.01860   0.07360   0.48320   1.000
    C71     C    0.96600   0.03200   0.47370   1.000
    H71     H    0.93300   0.03640   0.48310   1.000
    N8      N    0.98580   0.00710   0.31390   1.000
    C72     C    0.01250   0.99980   0.35990   1.000
    H72     H    0.04520   0.98810   0.36290   1.000
    N9      N    0.98040   0.01340   0.40060   1.000
    C73     C    0.93390   0.02910   0.37980   1.000
    H73     H    0.90620   0.04000   0.39800   1.000
    C74     C    0.93730   0.02520   0.32620   1.000
    H74     H    0.91210   0.03320   0.30320   1.000
    C75     C    0.00640   0.94900   0.02900   1.000
    H75     H    0.97940   0.92790   0.04130   1.000
    N10     N    0.88605   0.28671   0.19129   1.000
    O13     O    0.97246   0.06751   0.22647   1.000
    O14     O    0.97682   0.07000   0.14201   1.000
    O15     O    0.01214   0.43483   0.05223   1.000
    O16     O    0.93712   0.47413   0.05185   1.000
    C76     C    0.96717   0.08874   0.18445   1.000
    C77     C    0.94677   0.14114   0.18544   1.000
    C78     C    0.93929   0.16774   0.14161   1.000
    H76     H    0.94740   0.15340   0.11060   1.000
    C79     C    0.91968   0.21587   0.14318   1.000
    H77     H    0.91450   0.23360   0.11330   1.000
    C80     C    0.90791   0.23742   0.18940   1.000
    C81     C    0.91557   0.21133   0.23337   1.000
    H78     H    0.90810   0.22600   0.26440   1.000
    C82     C    0.93455   0.16271   0.23158   1.000
    H79     H    0.93900   0.14470   0.26140   1.000
    C83     C    0.90635   0.32526   0.16201   1.000
    C84     C    0.95683   0.32757   0.15168   1.000
    H80     H    0.97800   0.30350   0.16550   1.000
    C85     C    0.97662   0.36423   0.12170   1.000
    H81     H    0.01090   0.36490   0.11540   1.000
    C86     C    0.94569   0.40048   0.10046   1.000
    C87     C    0.89511   0.39938   0.11109   1.000
    H82     H    0.87430   0.42400   0.09780   1.000
    C88     C    0.87508   0.36215   0.14113   1.000
    H83     H    0.84080   0.36150   0.14760   1.000
    C89     C    0.96659   0.43982   0.06520   1.000
    C90     C    0.84220   0.29305   0.22073   1.000
    C91     C    0.80580   0.25648   0.22120   1.000
    H84     H    0.80990   0.22750   0.20210   1.000
    C92     C    0.95850   0.03140   0.02880   1.000
    H85     H    0.96220   0.06550   0.04100   1.000
    H86     H    0.92670   0.01860   0.04100   1.000
    H87     H    0.15810   0.48620   0.02960   1.000
    H88     H    0.22590   0.44790   0.02970   1.000
    H89     H    0.08870   0.37150   0.02970   1.000
    H90     H    0.15420   0.33240   0.97040   1.000
    C93     C    0.13010   0.42470   0.05160   1.000
    H91     H    0.10460   0.40570   0.06930   1.000
    H92     H    0.13630   0.45550   0.07000   1.000
    C94     C    0.17760   0.39460   0.04690   1.000
    H93     H    0.20270   0.41220   0.06660   1.000
    H94     H    0.17140   0.36320   0.06430   1.000
    C95     C    0.00100   0.95390   0.47370   1.000
    H95     H    0.98140   0.92640   0.48320   1.000
    C96     C    0.03400   0.96800   0.47370   1.000
    H96     H    0.06700   0.96360   0.48310   1.000
    N11     N    0.01420   0.99290   0.31390   1.000
    C97     C    0.98750   0.00020   0.35990   1.000
    H97     H    0.95480   0.01190   0.36290   1.000
    N12     N    0.01960   0.98660   0.40060   1.000
    C98     C    0.06610   0.97090   0.37980   1.000
    H98     H    0.09380   0.96000   0.39800   1.000
    C99     C    0.06270   0.97480   0.32620   1.000
    H99     H    0.08790   0.96680   0.30320   1.000
    C100    C    0.99360   0.05100   0.02900   1.000
    H100    H    0.02060   0.07210   0.04130   1.000
    N13     N    0.78671   0.38605   0.30871   1.000
    O17     O    0.56751   0.47246   0.27353   1.000
    O18     O    0.57000   0.47682   0.35799   1.000
    O19     O    0.93483   0.51214   0.44777   1.000
    O20     O    0.97413   0.43712   0.44815   1.000
    C101    C    0.58874   0.46717   0.31555   1.000
    C102    C    0.64114   0.44677   0.31456   1.000
    C103    C    0.66774   0.43929   0.35839   1.000
    H101    H    0.65340   0.44740   0.38940   1.000
    C104    C    0.71587   0.41968   0.35682   1.000
    H102    H    0.73360   0.41450   0.38670   1.000
    C105    C    0.73742   0.40791   0.31060   1.000
    C106    C    0.71133   0.41557   0.26663   1.000
    H103    H    0.72600   0.40810   0.23560   1.000
    C107    C    0.66271   0.43455   0.26842   1.000
    H104    H    0.64470   0.43900   0.23860   1.000
    C108    C    0.82526   0.40635   0.33799   1.000
    C109    C    0.82757   0.45683   0.34832   1.000
    H105    H    0.80350   0.47800   0.33450   1.000
    C110    C    0.86423   0.47662   0.37830   1.000
    H106    H    0.86490   0.51090   0.38460   1.000
    C111    C    0.90048   0.44569   0.39954   1.000
    C112    C    0.89938   0.39511   0.38891   1.000
    H107    H    0.92400   0.37430   0.40220   1.000
    C113    C    0.86215   0.37508   0.35887   1.000
    H108    H    0.86150   0.34080   0.35240   1.000
    C114    C    0.93982   0.46659   0.43480   1.000
    C115    C    0.79305   0.34220   0.27927   1.000
    C116    C    0.75648   0.30580   0.27880   1.000
    H109    H    0.72750   0.30990   0.29790   1.000
    C117    C    0.53140   0.45850   0.47120   1.000
    H110    H    0.56550   0.46220   0.45900   1.000
    H111    H    0.51860   0.42670   0.45900   1.000
    H112    H    0.98620   0.65810   0.47040   1.000
    H113    H    0.94790   0.72590   0.47030   1.000
    H114    H    0.87150   0.58870   0.47030   1.000
    H115    H    0.83240   0.65420   0.52960   1.000
    C118    C    0.92470   0.63010   0.44840   1.000
    H116    H    0.90570   0.60460   0.43070   1.000
    H117    H    0.95550   0.63630   0.43000   1.000
    C119    C    0.89460   0.67760   0.45310   1.000
    H118    H    0.91220   0.70270   0.43340   1.000
    H119    H    0.86320   0.67140   0.43570   1.000
    C120    C    0.45390   0.50100   0.02630   1.000
    H120    H    0.42640   0.48140   0.01680   1.000
    C121    C    0.46800   0.53400   0.02630   1.000
    H121    H    0.46360   0.56700   0.01690   1.000
    N14     N    0.49290   0.51420   0.18610   1.000
    C122    C    0.50020   0.48750   0.14010   1.000
    H122    H    0.51190   0.45480   0.13710   1.000
    N15     N    0.48660   0.51960   0.09940   1.000
    C123    C    0.47090   0.56610   0.12020   1.000
    H123    H    0.46000   0.59380   0.10200   1.000
    C124    C    0.47480   0.56270   0.17380   1.000
    H124    H    0.46680   0.58790   0.19680   1.000
    C125    C    0.55100   0.49360   0.47100   1.000
    H125    H    0.57210   0.52060   0.45870   1.000
    N16     N    0.21329   0.61395   0.30871   1.000
    O21     O    0.43249   0.52754   0.27353   1.000
    O22     O    0.43000   0.52318   0.35799   1.000
    O23     O    0.06517   0.48786   0.44777   1.000
    O24     O    0.02587   0.56288   0.44815   1.000
    C126    C    0.41126   0.53283   0.31555   1.000
    C127    C    0.35886   0.55323   0.31456   1.000
    C128    C    0.33226   0.56071   0.35839   1.000
    H126    H    0.34660   0.55260   0.38940   1.000
    C129    C    0.28413   0.58032   0.35682   1.000
    H127    H    0.26640   0.58550   0.38670   1.000
    C130    C    0.26258   0.59209   0.31060   1.000
    C131    C    0.28867   0.58443   0.26663   1.000
    H128    H    0.27400   0.59190   0.23560   1.000
    C132    C    0.33729   0.56545   0.26842   1.000
    H129    H    0.35530   0.56100   0.23860   1.000
    C133    C    0.17474   0.59365   0.33799   1.000
    C134    C    0.17243   0.54317   0.34832   1.000
    H130    H    0.19650   0.52200   0.33450   1.000
    C135    C    0.13577   0.52338   0.37830   1.000
    H131    H    0.13510   0.48910   0.38460   1.000
    C136    C    0.09952   0.55431   0.39954   1.000
    C137    C    0.10062   0.60489   0.38891   1.000
    H132    H    0.07600   0.62570   0.40220   1.000
    C138    C    0.13785   0.62492   0.35887   1.000
    H133    H    0.13850   0.65920   0.35240   1.000
    C139    C    0.06018   0.53341   0.43480   1.000
    C140    C    0.20695   0.65780   0.27927   1.000
    C141    C    0.24352   0.69420   0.27880   1.000
    H134    H    0.27250   0.69010   0.29790   1.000
    C142    C    0.46860   0.54150   0.47120   1.000
    H135    H    0.43450   0.53780   0.45900   1.000
    H136    H    0.48140   0.57330   0.45900   1.000
    H137    H    0.01380   0.34190   0.47040   1.000
    H138    H    0.05210   0.27410   0.47030   1.000
    H139    H    0.12850   0.41130   0.47030   1.000
    H140    H    0.16760   0.34580   0.52960   1.000
    C143    C    0.07530   0.36990   0.44840   1.000
    H141    H    0.09430   0.39540   0.43070   1.000
    H142    H    0.04450   0.36370   0.43000   1.000
    C144    C    0.10540   0.32240   0.45310   1.000
    H143    H    0.08780   0.29730   0.43340   1.000
    H144    H    0.13680   0.32860   0.43570   1.000
    C145    C    0.54610   0.49900   0.02630   1.000
    H145    H    0.57360   0.51860   0.01680   1.000
    C146    C    0.53200   0.46600   0.02630   1.000
    H146    H    0.53640   0.43300   0.01690   1.000
    N17     N    0.50710   0.48580   0.18610   1.000
    C147    C    0.49980   0.51250   0.14010   1.000
    H147    H    0.48810   0.54520   0.13710   1.000
    N18     N    0.51340   0.48040   0.09940   1.000
    C148    C    0.52910   0.43390   0.12020   1.000
    H148    H    0.54000   0.40620   0.10200   1.000
    C149    C    0.52520   0.43730   0.17380   1.000
    H149    H    0.53320   0.41210   0.19680   1.000
    C150    C    0.44900   0.50640   0.47100   1.000
    H150    H    0.42790   0.47940   0.45870   1.000
    N19     N    0.38605   0.21329   0.30871   1.000
    O25     O    0.47246   0.43249   0.27353   1.000
    O26     O    0.47682   0.43000   0.35799   1.000
    O27     O    0.51214   0.06517   0.44777   1.000
    O28     O    0.43712   0.02587   0.44815   1.000
    C151    C    0.46717   0.41126   0.31555   1.000
    C152    C    0.44677   0.35886   0.31456   1.000
    C153    C    0.43929   0.33226   0.35839   1.000
    H151    H    0.44740   0.34660   0.38940   1.000
    C154    C    0.41968   0.28413   0.35682   1.000
    H152    H    0.41450   0.26640   0.38670   1.000
    C155    C    0.40791   0.26258   0.31060   1.000
    C156    C    0.41557   0.28867   0.26663   1.000
    H153    H    0.40810   0.27400   0.23560   1.000
    C157    C    0.43455   0.33729   0.26842   1.000
    H154    H    0.43900   0.35530   0.23860   1.000
    C158    C    0.40635   0.17474   0.33799   1.000
    C159    C    0.45683   0.17243   0.34832   1.000
    H155    H    0.47800   0.19650   0.33450   1.000
    C160    C    0.47662   0.13577   0.37830   1.000
    H156    H    0.51090   0.13510   0.38460   1.000
    C161    C    0.44569   0.09952   0.39954   1.000
    C162    C    0.39511   0.10062   0.38891   1.000
    H157    H    0.37430   0.07600   0.40220   1.000
    C163    C    0.37508   0.13785   0.35887   1.000
    H158    H    0.34080   0.13850   0.35240   1.000
    C164    C    0.46659   0.06018   0.43480   1.000
    C165    C    0.34220   0.20695   0.27927   1.000
    C166    C    0.30580   0.24352   0.27880   1.000
    H159    H    0.30990   0.27250   0.29790   1.000
    C167    C    0.45850   0.46860   0.47120   1.000
    H160    H    0.46220   0.43450   0.45900   1.000
    H161    H    0.42670   0.48140   0.45900   1.000
    H162    H    0.65810   0.01380   0.47040   1.000
    H163    H    0.72590   0.05210   0.47030   1.000
    H164    H    0.58870   0.12850   0.47030   1.000
    H165    H    0.65420   0.16760   0.52960   1.000
    C168    C    0.63010   0.07530   0.44840   1.000
    H166    H    0.60460   0.09430   0.43070   1.000
    H167    H    0.63630   0.04450   0.43000   1.000
    C169    C    0.67760   0.10540   0.45310   1.000
    H168    H    0.70270   0.08780   0.43340   1.000
    H169    H    0.67140   0.13680   0.43570   1.000
    C170    C    0.50100   0.54610   0.02630   1.000
    H170    H    0.48140   0.57360   0.01680   1.000
    C171    C    0.53400   0.53200   0.02630   1.000
    H171    H    0.56700   0.53640   0.01690   1.000
    N20     N    0.51420   0.50710   0.18610   1.000
    C172    C    0.48750   0.49980   0.14010   1.000
    H172    H    0.45480   0.48810   0.13710   1.000
    N21     N    0.51960   0.51340   0.09940   1.000
    C173    C    0.56610   0.52910   0.12020   1.000
    H173    H    0.59380   0.54000   0.10200   1.000
    C174    C    0.56270   0.52520   0.17380   1.000
    H174    H    0.58790   0.53320   0.19680   1.000
    C175    C    0.49360   0.44900   0.47100   1.000
    H175    H    0.52060   0.42790   0.45870   1.000
    N22     N    0.61395   0.78671   0.30871   1.000
    O29     O    0.52754   0.56751   0.27353   1.000
    O30     O    0.52318   0.57000   0.35799   1.000
    O31     O    0.48786   0.93483   0.44777   1.000
    O32     O    0.56288   0.97413   0.44815   1.000
    C176    C    0.53283   0.58874   0.31555   1.000
    C177    C    0.55323   0.64114   0.31456   1.000
    C178    C    0.56071   0.66774   0.35839   1.000
    H176    H    0.55260   0.65340   0.38940   1.000
    C179    C    0.58032   0.71587   0.35682   1.000
    H177    H    0.58550   0.73360   0.38670   1.000
    C180    C    0.59209   0.73742   0.31060   1.000
    C181    C    0.58443   0.71133   0.26663   1.000
    H178    H    0.59190   0.72600   0.23560   1.000
    C182    C    0.56545   0.66271   0.26842   1.000
    H179    H    0.56100   0.64470   0.23860   1.000
    C183    C    0.59365   0.82526   0.33799   1.000
    C184    C    0.54317   0.82757   0.34832   1.000
    H180    H    0.52200   0.80350   0.33450   1.000
    C185    C    0.52338   0.86423   0.37830   1.000
    H181    H    0.48910   0.86490   0.38460   1.000
    C186    C    0.55431   0.90048   0.39954   1.000
    C187    C    0.60489   0.89938   0.38891   1.000
    H182    H    0.62570   0.92400   0.40220   1.000
    C188    C    0.62492   0.86215   0.35887   1.000
    H183    H    0.65920   0.86150   0.35240   1.000
    C189    C    0.53341   0.93982   0.43480   1.000
    C190    C    0.65780   0.79305   0.27927   1.000
    C191    C    0.69420   0.75648   0.27880   1.000
    H184    H    0.69010   0.72750   0.29790   1.000
    C192    C    0.54150   0.53140   0.47120   1.000
    H185    H    0.53780   0.56550   0.45900   1.000
    H186    H    0.57330   0.51860   0.45900   1.000
    H187    H    0.34190   0.98620   0.47040   1.000
    H188    H    0.27410   0.94790   0.47030   1.000
    H189    H    0.41130   0.87150   0.47030   1.000
    H190    H    0.34580   0.83240   0.52960   1.000
    C193    C    0.36990   0.92470   0.44840   1.000
    H191    H    0.39540   0.90570   0.43070   1.000
    H192    H    0.36370   0.95550   0.43000   1.000
    C194    C    0.32240   0.89460   0.45310   1.000
    H193    H    0.29730   0.91220   0.43340   1.000
    H194    H    0.32860   0.86320   0.43570   1.000
    C195    C    0.49900   0.45390   0.02630   1.000
    H195    H    0.51860   0.42640   0.01680   1.000
    C196    C    0.46600   0.46800   0.02630   1.000
    H196    H    0.43300   0.46360   0.01690   1.000
    N23     N    0.48580   0.49290   0.18610   1.000
    C197    C    0.51250   0.50020   0.14010   1.000
    H197    H    0.54520   0.51190   0.13710   1.000
    N24     N    0.48040   0.48660   0.09940   1.000
    C198    C    0.43390   0.47090   0.12020   1.000
    H198    H    0.40620   0.46000   0.10200   1.000
    C199    C    0.43730   0.47480   0.17380   1.000
    H199    H    0.41210   0.46680   0.19680   1.000
    C200    C    0.50640   0.55100   0.47100   1.000
    H200    H    0.47940   0.57210   0.45870   1.000
    N25     N    0.28671   0.11395   0.80871   1.000
    O33     O    0.06751   0.02754   0.77353   1.000
    O34     O    0.07000   0.02318   0.85799   1.000
    O35     O    0.43483   0.98786   0.94777   1.000
    O36     O    0.47413   0.06288   0.94815   1.000
    C201    C    0.08874   0.03283   0.81555   1.000
    C202    C    0.14114   0.05323   0.81456   1.000
    C203    C    0.16774   0.06071   0.85839   1.000
    H201    H    0.15340   0.05260   0.88940   1.000
    C204    C    0.21587   0.08032   0.85682   1.000
    H202    H    0.23360   0.08550   0.88670   1.000
    C205    C    0.23742   0.09209   0.81060   1.000
    C206    C    0.21133   0.08443   0.76663   1.000
    H203    H    0.22600   0.09190   0.73560   1.000
    C207    C    0.16271   0.06545   0.76842   1.000
    H204    H    0.14470   0.06100   0.73860   1.000
    C208    C    0.32526   0.09365   0.83799   1.000
    C209    C    0.32757   0.04317   0.84832   1.000
    H205    H    0.30350   0.02200   0.83450   1.000
    C210    C    0.36423   0.02338   0.87830   1.000
    H206    H    0.36490   0.98910   0.88460   1.000
    C211    C    0.40048   0.05431   0.89954   1.000
    C212    C    0.39938   0.10489   0.88891   1.000
    H207    H    0.42400   0.12570   0.90220   1.000
    C213    C    0.36215   0.12492   0.85887   1.000
    H208    H    0.36150   0.15920   0.85240   1.000
    C214    C    0.43982   0.03341   0.93480   1.000
    C215    C    0.29305   0.15780   0.77927   1.000
    C216    C    0.25648   0.19420   0.77880   1.000
    H209    H    0.22750   0.19010   0.79790   1.000
    C217    C    0.03140   0.04150   0.97120   1.000
    H210    H    0.06550   0.03780   0.95900   1.000
    H211    H    0.01860   0.07330   0.95900   1.000
    H212    H    0.48620   0.84190   0.97040   1.000
    H213    H    0.44790   0.77410   0.97030   1.000
    H214    H    0.37150   0.91130   0.97030   1.000
    H215    H    0.33240   0.84580   0.02960   1.000
    C218    C    0.42470   0.86990   0.94840   1.000
    H216    H    0.40570   0.89540   0.93070   1.000
    H217    H    0.45550   0.86370   0.93000   1.000
    C219    C    0.39460   0.82240   0.95310   1.000
    H218    H    0.41220   0.79730   0.93340   1.000
    H219    H    0.36320   0.82860   0.93570   1.000
    C220    C    0.95390   0.99900   0.52630   1.000
    H220    H    0.92640   0.01860   0.51680   1.000
    C221    C    0.96800   0.96600   0.52630   1.000
    H221    H    0.96360   0.93300   0.51690   1.000
    N26     N    0.99290   0.98580   0.68610   1.000
    C222    C    0.00020   0.01250   0.64010   1.000
    H222    H    0.01190   0.04520   0.63710   1.000
    N27     N    0.98660   0.98040   0.59940   1.000
    C223    C    0.97090   0.93390   0.62020   1.000
    H223    H    0.96000   0.90620   0.60200   1.000
    C224    C    0.97480   0.93730   0.67380   1.000
    H224    H    0.96680   0.91210   0.69680   1.000
    C225    C    0.05100   0.00640   0.97100   1.000
    H225    H    0.07210   0.97940   0.95870   1.000
    N28     N    0.71329   0.88605   0.80871   1.000
    O37     O    0.93249   0.97246   0.77353   1.000
    O38     O    0.93000   0.97682   0.85799   1.000
    O39     O    0.56517   0.01214   0.94777   1.000
    O40     O    0.52587   0.93712   0.94815   1.000
    C226    C    0.91126   0.96717   0.81555   1.000
    C227    C    0.85886   0.94677   0.81456   1.000
    C228    C    0.83226   0.93929   0.85839   1.000
    H226    H    0.84660   0.94740   0.88940   1.000
    C229    C    0.78413   0.91968   0.85682   1.000
    H227    H    0.76640   0.91450   0.88670   1.000
    C230    C    0.76258   0.90791   0.81060   1.000
    C231    C    0.78867   0.91557   0.76663   1.000
    H228    H    0.77400   0.90810   0.73560   1.000
    C232    C    0.83729   0.93455   0.76842   1.000
    H229    H    0.85530   0.93900   0.73860   1.000
    C233    C    0.67474   0.90635   0.83799   1.000
    C234    C    0.67243   0.95683   0.84832   1.000
    H230    H    0.69650   0.97800   0.83450   1.000
    C235    C    0.63577   0.97662   0.87830   1.000
    H231    H    0.63510   0.01090   0.88460   1.000
    C236    C    0.59952   0.94569   0.89954   1.000
    C237    C    0.60062   0.89511   0.88891   1.000
    H232    H    0.57600   0.87430   0.90220   1.000
    C238    C    0.63785   0.87508   0.85887   1.000
    H233    H    0.63850   0.84080   0.85240   1.000
    C239    C    0.56018   0.96659   0.93480   1.000
    C240    C    0.70695   0.84220   0.77927   1.000
    C241    C    0.74352   0.80580   0.77880   1.000
    H234    H    0.77250   0.80990   0.79790   1.000
    C242    C    0.96860   0.95850   0.97120   1.000
    H235    H    0.93450   0.96220   0.95900   1.000
    H236    H    0.98140   0.92670   0.95900   1.000
    H237    H    0.51380   0.15810   0.97040   1.000
    H238    H    0.55210   0.22590   0.97030   1.000
    H239    H    0.62850   0.08870   0.97030   1.000
    H240    H    0.66760   0.15420   0.02960   1.000
    C243    C    0.57530   0.13010   0.94840   1.000
    H241    H    0.59430   0.10460   0.93070   1.000
    H242    H    0.54450   0.13630   0.93000   1.000
    C244    C    0.60540   0.17760   0.95310   1.000
    H243    H    0.58780   0.20270   0.93340   1.000
    H244    H    0.63680   0.17140   0.93570   1.000
    C245    C    0.04610   0.00100   0.52630   1.000
    H245    H    0.07360   0.98140   0.51680   1.000
    C246    C    0.03200   0.03400   0.52630   1.000
    H246    H    0.03640   0.06700   0.51690   1.000
    N29     N    0.00710   0.01420   0.68610   1.000
    C247    C    0.99980   0.98750   0.64010   1.000
    H247    H    0.98810   0.95480   0.63710   1.000
    N30     N    0.01340   0.01960   0.59940   1.000
    C248    C    0.02910   0.06610   0.62020   1.000
    H248    H    0.04000   0.09380   0.60200   1.000
    C249    C    0.02520   0.06270   0.67380   1.000
    H249    H    0.03320   0.08790   0.69680   1.000
    C250    C    0.94900   0.99360   0.97100   1.000
    H250    H    0.92790   0.02060   0.95870   1.000
    N31     N    0.88605   0.28671   0.80871   1.000
    O41     O    0.97246   0.06751   0.77353   1.000
    O42     O    0.97682   0.07000   0.85799   1.000
    O43     O    0.01214   0.43483   0.94777   1.000
    O44     O    0.93712   0.47413   0.94815   1.000
    C251    C    0.96717   0.08874   0.81555   1.000
    C252    C    0.94677   0.14114   0.81456   1.000
    C253    C    0.93929   0.16774   0.85839   1.000
    H251    H    0.94740   0.15340   0.88940   1.000
    C254    C    0.91968   0.21587   0.85682   1.000
    H252    H    0.91450   0.23360   0.88670   1.000
    C255    C    0.90791   0.23742   0.81060   1.000
    C256    C    0.91557   0.21133   0.76663   1.000
    H253    H    0.90810   0.22600   0.73560   1.000
    C257    C    0.93455   0.16271   0.76842   1.000
    H254    H    0.93900   0.14470   0.73860   1.000
    C258    C    0.90635   0.32526   0.83799   1.000
    C259    C    0.95683   0.32757   0.84832   1.000
    H255    H    0.97800   0.30350   0.83450   1.000
    C260    C    0.97662   0.36423   0.87830   1.000
    H256    H    0.01090   0.36490   0.88460   1.000
    C261    C    0.94569   0.40048   0.89954   1.000
    C262    C    0.89511   0.39938   0.88891   1.000
    H257    H    0.87430   0.42400   0.90220   1.000
    C263    C    0.87508   0.36215   0.85887   1.000
    H258    H    0.84080   0.36150   0.85240   1.000
    C264    C    0.96659   0.43982   0.93480   1.000
    C265    C    0.84220   0.29305   0.77927   1.000
    C266    C    0.80580   0.25648   0.77880   1.000
    H259    H    0.80990   0.22750   0.79790   1.000
    C267    C    0.95850   0.03140   0.97120   1.000
    H260    H    0.96220   0.06550   0.95900   1.000
    H261    H    0.92670   0.01860   0.95900   1.000
    H262    H    0.15810   0.48620   0.97040   1.000
    H263    H    0.22590   0.44790   0.97030   1.000
    H264    H    0.08870   0.37150   0.97030   1.000
    H265    H    0.15420   0.33240   0.02960   1.000
    C268    C    0.13010   0.42470   0.94840   1.000
    H266    H    0.10460   0.40570   0.93070   1.000
    H267    H    0.13630   0.45550   0.93000   1.000
    C269    C    0.17760   0.39460   0.95310   1.000
    H268    H    0.20270   0.41220   0.93340   1.000
    H269    H    0.17140   0.36320   0.93570   1.000
    C270    C    0.00100   0.95390   0.52630   1.000
    H270    H    0.98140   0.92640   0.51680   1.000
    C271    C    0.03400   0.96800   0.52630   1.000
    H271    H    0.06700   0.96360   0.51690   1.000
    N32     N    0.01420   0.99290   0.68610   1.000
    C272    C    0.98750   0.00020   0.64010   1.000
    H272    H    0.95480   0.01190   0.63710   1.000
    N33     N    0.01960   0.98660   0.59940   1.000
    C273    C    0.06610   0.97090   0.62020   1.000
    H273    H    0.09380   0.96000   0.60200   1.000
    C274    C    0.06270   0.97480   0.67380   1.000
    H274    H    0.08790   0.96680   0.69680   1.000
    C275    C    0.99360   0.05100   0.97100   1.000
    H275    H    0.02060   0.07210   0.95870   1.000
    N34     N    0.11395   0.71329   0.80871   1.000
    O45     O    0.02754   0.93249   0.77353   1.000
    O46     O    0.02318   0.93000   0.85799   1.000
    O47     O    0.98786   0.56517   0.94777   1.000
    O48     O    0.06288   0.52587   0.94815   1.000
    C276    C    0.03283   0.91126   0.81555   1.000
    C277    C    0.05323   0.85886   0.81456   1.000
    C278    C    0.06071   0.83226   0.85839   1.000
    H276    H    0.05260   0.84660   0.88940   1.000
    C279    C    0.08032   0.78413   0.85682   1.000
    H277    H    0.08550   0.76640   0.88670   1.000
    C280    C    0.09209   0.76258   0.81060   1.000
    C281    C    0.08443   0.78867   0.76663   1.000
    H278    H    0.09190   0.77400   0.73560   1.000
    C282    C    0.06545   0.83729   0.76842   1.000
    H279    H    0.06100   0.85530   0.73860   1.000
    C283    C    0.09365   0.67474   0.83799   1.000
    C284    C    0.04317   0.67243   0.84832   1.000
    H280    H    0.02200   0.69650   0.83450   1.000
    C285    C    0.02338   0.63577   0.87830   1.000
    H281    H    0.98910   0.63510   0.88460   1.000
    C286    C    0.05431   0.59952   0.89954   1.000
    C287    C    0.10489   0.60062   0.88891   1.000
    H282    H    0.12570   0.57600   0.90220   1.000
    C288    C    0.12492   0.63785   0.85887   1.000
    H283    H    0.15920   0.63850   0.85240   1.000
    C289    C    0.03341   0.56018   0.93480   1.000
    C290    C    0.15780   0.70695   0.77927   1.000
    C291    C    0.19420   0.74352   0.77880   1.000
    H284    H    0.19010   0.77250   0.79790   1.000
    C292    C    0.04150   0.96860   0.97120   1.000
    H285    H    0.03780   0.93450   0.95900   1.000
    H286    H    0.07330   0.98140   0.95900   1.000
    H287    H    0.84190   0.51380   0.97040   1.000
    H288    H    0.77410   0.55210   0.97030   1.000
    H289    H    0.91130   0.62850   0.97030   1.000
    H290    H    0.84580   0.66760   0.02960   1.000
    C293    C    0.86990   0.57530   0.94840   1.000
    H291    H    0.89540   0.59430   0.93070   1.000
    H292    H    0.86370   0.54450   0.93000   1.000
    C294    C    0.82240   0.60540   0.95310   1.000
    H293    H    0.79730   0.58780   0.93340   1.000
    H294    H    0.82860   0.63680   0.93570   1.000
    C295    C    0.99900   0.04610   0.52630   1.000
    H295    H    0.01860   0.07360   0.51680   1.000
    C296    C    0.96600   0.03200   0.52630   1.000
    H296    H    0.93300   0.03640   0.51690   1.000
    N35     N    0.98580   0.00710   0.68610   1.000
    C297    C    0.01250   0.99980   0.64010   1.000
    H297    H    0.04520   0.98810   0.63710   1.000
    N36     N    0.98040   0.01340   0.59940   1.000
    C298    C    0.93390   0.02910   0.62020   1.000
    H298    H    0.90620   0.04000   0.60200   1.000
    C299    C    0.93730   0.02520   0.67380   1.000
    H299    H    0.91210   0.03320   0.69680   1.000
    C300    C    0.00640   0.94900   0.97100   1.000
    H300    H    0.97940   0.92790   0.95870   1.000
    N37     N    0.21329   0.61395   0.69129   1.000
    O49     O    0.43249   0.52754   0.72647   1.000
    O50     O    0.43000   0.52318   0.64201   1.000
    O51     O    0.06517   0.48786   0.55223   1.000
    O52     O    0.02587   0.56288   0.55185   1.000
    C301    C    0.41126   0.53283   0.68445   1.000
    C302    C    0.35886   0.55323   0.68544   1.000
    C303    C    0.33226   0.56071   0.64161   1.000
    H301    H    0.34660   0.55260   0.61060   1.000
    C304    C    0.28413   0.58032   0.64318   1.000
    H302    H    0.26640   0.58550   0.61330   1.000
    C305    C    0.26258   0.59209   0.68940   1.000
    C306    C    0.28867   0.58443   0.73337   1.000
    H303    H    0.27400   0.59190   0.76440   1.000
    C307    C    0.33729   0.56545   0.73158   1.000
    H304    H    0.35530   0.56100   0.76140   1.000
    C308    C    0.17474   0.59365   0.66201   1.000
    C309    C    0.17243   0.54317   0.65168   1.000
    H305    H    0.19650   0.52200   0.66550   1.000
    C310    C    0.13577   0.52338   0.62170   1.000
    H306    H    0.13510   0.48910   0.61540   1.000
    C311    C    0.09952   0.55431   0.60046   1.000
    C312    C    0.10062   0.60489   0.61109   1.000
    H307    H    0.07600   0.62570   0.59780   1.000
    C313    C    0.13785   0.62492   0.64113   1.000
    H308    H    0.13850   0.65920   0.64760   1.000
    C314    C    0.06018   0.53341   0.56520   1.000
    C315    C    0.20695   0.65780   0.72073   1.000
    C316    C    0.24352   0.69420   0.72120   1.000
    H309    H    0.27250   0.69010   0.70210   1.000
    C317    C    0.46860   0.54150   0.52880   1.000
    H310    H    0.43450   0.53780   0.54100   1.000
    H311    H    0.48140   0.57330   0.54100   1.000
    H312    H    0.01380   0.34190   0.52960   1.000
    H313    H    0.05210   0.27410   0.52970   1.000
    H314    H    0.12850   0.41130   0.52970   1.000
    H315    H    0.16760   0.34580   0.47040   1.000
    C318    C    0.07530   0.36990   0.55160   1.000
    H316    H    0.09430   0.39540   0.56930   1.000
    H317    H    0.04450   0.36370   0.57000   1.000
    C319    C    0.10540   0.32240   0.54690   1.000
    H318    H    0.08780   0.29730   0.56660   1.000
    H319    H    0.13680   0.32860   0.56430   1.000
    C320    C    0.54610   0.49900   0.97370   1.000
    H320    H    0.57360   0.51860   0.98320   1.000
    C321    C    0.53200   0.46600   0.97370   1.000
    H321    H    0.53640   0.43300   0.98310   1.000
    N38     N    0.50710   0.48580   0.81390   1.000
    C322    C    0.49980   0.51250   0.85990   1.000
    H322    H    0.48810   0.54520   0.86290   1.000
    N39     N    0.51340   0.48040   0.90060   1.000
    C323    C    0.52910   0.43390   0.87980   1.000
    H323    H    0.54000   0.40620   0.89800   1.000
    C324    C    0.52520   0.43730   0.82620   1.000
    H324    H    0.53320   0.41210   0.80320   1.000
    C325    C    0.44900   0.50640   0.52900   1.000
    H325    H    0.42790   0.47940   0.54130   1.000
    N40     N    0.78671   0.38605   0.69129   1.000
    O53     O    0.56751   0.47246   0.72647   1.000
    O54     O    0.57000   0.47682   0.64201   1.000
    O55     O    0.93483   0.51214   0.55223   1.000
    O56     O    0.97413   0.43712   0.55185   1.000
    C326    C    0.58874   0.46717   0.68445   1.000
    C327    C    0.64114   0.44677   0.68544   1.000
    C328    C    0.66774   0.43929   0.64161   1.000
    H326    H    0.65340   0.44740   0.61060   1.000
    C329    C    0.71587   0.41968   0.64318   1.000
    H327    H    0.73360   0.41450   0.61330   1.000
    C330    C    0.73742   0.40791   0.68940   1.000
    C331    C    0.71133   0.41557   0.73337   1.000
    H328    H    0.72600   0.40810   0.76440   1.000
    C332    C    0.66271   0.43455   0.73158   1.000
    H329    H    0.64470   0.43900   0.76140   1.000
    C333    C    0.82526   0.40635   0.66201   1.000
    C334    C    0.82757   0.45683   0.65168   1.000
    H330    H    0.80350   0.47800   0.66550   1.000
    C335    C    0.86423   0.47662   0.62170   1.000
    H331    H    0.86490   0.51090   0.61540   1.000
    C336    C    0.90048   0.44569   0.60046   1.000
    C337    C    0.89938   0.39511   0.61109   1.000
    H332    H    0.92400   0.37430   0.59780   1.000
    C338    C    0.86215   0.37508   0.64113   1.000
    H333    H    0.86150   0.34080   0.64760   1.000
    C339    C    0.93982   0.46659   0.56520   1.000
    C340    C    0.79305   0.34220   0.72073   1.000
    C341    C    0.75648   0.30580   0.72120   1.000
    H334    H    0.72750   0.30990   0.70210   1.000
    C342    C    0.53140   0.45850   0.52880   1.000
    H335    H    0.56550   0.46220   0.54100   1.000
    H336    H    0.51860   0.42670   0.54100   1.000
    H337    H    0.98620   0.65810   0.52960   1.000
    H338    H    0.94790   0.72590   0.52970   1.000
    H339    H    0.87150   0.58870   0.52970   1.000
    H340    H    0.83240   0.65420   0.47040   1.000
    C343    C    0.92470   0.63010   0.55160   1.000
    H341    H    0.90570   0.60460   0.56930   1.000
    H342    H    0.95550   0.63630   0.57000   1.000
    C344    C    0.89460   0.67760   0.54690   1.000
    H343    H    0.91220   0.70270   0.56660   1.000
    H344    H    0.86320   0.67140   0.56430   1.000
    C345    C    0.45390   0.50100   0.97370   1.000
    H345    H    0.42640   0.48140   0.98320   1.000
    C346    C    0.46800   0.53400   0.97370   1.000
    H346    H    0.46360   0.56700   0.98310   1.000
    N41     N    0.49290   0.51420   0.81390   1.000
    C347    C    0.50020   0.48750   0.85990   1.000
    H347    H    0.51190   0.45480   0.86290   1.000
    N42     N    0.48660   0.51960   0.90060   1.000
    C348    C    0.47090   0.56610   0.87980   1.000
    H348    H    0.46000   0.59380   0.89800   1.000
    C349    C    0.47480   0.56270   0.82620   1.000
    H349    H    0.46680   0.58790   0.80320   1.000
    C350    C    0.55100   0.49360   0.52900   1.000
    H350    H    0.57210   0.52060   0.54130   1.000
    N43     N    0.61395   0.78671   0.69129   1.000
    O57     O    0.52754   0.56751   0.72647   1.000
    O58     O    0.52318   0.57000   0.64201   1.000
    O59     O    0.48786   0.93483   0.55223   1.000
    O60     O    0.56288   0.97413   0.55185   1.000
    C351    C    0.53283   0.58874   0.68445   1.000
    C352    C    0.55323   0.64114   0.68544   1.000
    C353    C    0.56071   0.66774   0.64161   1.000
    H351    H    0.55260   0.65340   0.61060   1.000
    C354    C    0.58032   0.71587   0.64318   1.000
    H352    H    0.58550   0.73360   0.61330   1.000
    C355    C    0.59209   0.73742   0.68940   1.000
    C356    C    0.58443   0.71133   0.73337   1.000
    H353    H    0.59190   0.72600   0.76440   1.000
    C357    C    0.56545   0.66271   0.73158   1.000
    H354    H    0.56100   0.64470   0.76140   1.000
    C358    C    0.59365   0.82526   0.66201   1.000
    C359    C    0.54317   0.82757   0.65168   1.000
    H355    H    0.52200   0.80350   0.66550   1.000
    C360    C    0.52338   0.86423   0.62170   1.000
    H356    H    0.48910   0.86490   0.61540   1.000
    C361    C    0.55431   0.90048   0.60046   1.000
    C362    C    0.60489   0.89938   0.61109   1.000
    H357    H    0.62570   0.92400   0.59780   1.000
    C363    C    0.62492   0.86215   0.64113   1.000
    H358    H    0.65920   0.86150   0.64760   1.000
    C364    C    0.53341   0.93982   0.56520   1.000
    C365    C    0.65780   0.79305   0.72073   1.000
    C366    C    0.69420   0.75648   0.72120   1.000
    H359    H    0.69010   0.72750   0.70210   1.000
    C367    C    0.54150   0.53140   0.52880   1.000
    H360    H    0.53780   0.56550   0.54100   1.000
    H361    H    0.57330   0.51860   0.54100   1.000
    H362    H    0.34190   0.98620   0.52960   1.000
    H363    H    0.27410   0.94790   0.52970   1.000
    H364    H    0.41130   0.87150   0.52970   1.000
    H365    H    0.34580   0.83240   0.47040   1.000
    C368    C    0.36990   0.92470   0.55160   1.000
    H366    H    0.39540   0.90570   0.56930   1.000
    H367    H    0.36370   0.95550   0.57000   1.000
    C369    C    0.32240   0.89460   0.54690   1.000
    H368    H    0.29730   0.91220   0.56660   1.000
    H369    H    0.32860   0.86320   0.56430   1.000
    C370    C    0.49900   0.45390   0.97370   1.000
    H370    H    0.51860   0.42640   0.98320   1.000
    C371    C    0.46600   0.46800   0.97370   1.000
    H371    H    0.43300   0.46360   0.98310   1.000
    N44     N    0.48580   0.49290   0.81390   1.000
    C372    C    0.51250   0.50020   0.85990   1.000
    H372    H    0.54520   0.51190   0.86290   1.000
    N45     N    0.48040   0.48660   0.90060   1.000
    C373    C    0.43390   0.47090   0.87980   1.000
    H373    H    0.40620   0.46000   0.89800   1.000
    C374    C    0.43730   0.47480   0.82620   1.000
    H374    H    0.41210   0.46680   0.80320   1.000
    C375    C    0.50640   0.55100   0.52900   1.000
    H375    H    0.47940   0.57210   0.54130   1.000
    N46     N    0.38605   0.21329   0.69129   1.000
    O61     O    0.47246   0.43249   0.72647   1.000
    O62     O    0.47682   0.43000   0.64201   1.000
    O63     O    0.51214   0.06517   0.55223   1.000
    O64     O    0.43712   0.02587   0.55185   1.000
    C376    C    0.46717   0.41126   0.68445   1.000
    C377    C    0.44677   0.35886   0.68544   1.000
    C378    C    0.43929   0.33226   0.64161   1.000
    H376    H    0.44740   0.34660   0.61060   1.000
    C379    C    0.41968   0.28413   0.64318   1.000
    H377    H    0.41450   0.26640   0.61330   1.000
    C380    C    0.40791   0.26258   0.68940   1.000
    C381    C    0.41557   0.28867   0.73337   1.000
    H378    H    0.40810   0.27400   0.76440   1.000
    C382    C    0.43455   0.33729   0.73158   1.000
    H379    H    0.43900   0.35530   0.76140   1.000
    C383    C    0.40635   0.17474   0.66201   1.000
    C384    C    0.45683   0.17243   0.65168   1.000
    H380    H    0.47800   0.19650   0.66550   1.000
    C385    C    0.47662   0.13577   0.62170   1.000
    H381    H    0.51090   0.13510   0.61540   1.000
    C386    C    0.44569   0.09952   0.60046   1.000
    C387    C    0.39511   0.10062   0.61109   1.000
    H382    H    0.37430   0.07600   0.59780   1.000
    C388    C    0.37508   0.13785   0.64113   1.000
    H383    H    0.34080   0.13850   0.64760   1.000
    C389    C    0.46659   0.06018   0.56520   1.000
    C390    C    0.34220   0.20695   0.72073   1.000
    C391    C    0.30580   0.24352   0.72120   1.000
    H384    H    0.30990   0.27250   0.70210   1.000
    C392    C    0.45850   0.46860   0.52880   1.000
    H385    H    0.46220   0.43450   0.54100   1.000
    H386    H    0.42670   0.48140   0.54100   1.000
    H387    H    0.65810   0.01380   0.52960   1.000
    H388    H    0.72590   0.05210   0.52970   1.000
    H389    H    0.58870   0.12850   0.52970   1.000
    H390    H    0.65420   0.16760   0.47040   1.000
    C393    C    0.63010   0.07530   0.55160   1.000
    H391    H    0.60460   0.09430   0.56930   1.000
    H392    H    0.63630   0.04450   0.57000   1.000
    C394    C    0.67760   0.10540   0.54690   1.000
    H393    H    0.70270   0.08780   0.56660   1.000
    H394    H    0.67140   0.13680   0.56430   1.000
    C395    C    0.50100   0.54610   0.97370   1.000
    H395    H    0.48140   0.57360   0.98320   1.000
    C396    C    0.53400   0.53200   0.97370   1.000
    H396    H    0.56700   0.53640   0.98310   1.000
    N47     N    0.51420   0.50710   0.81390   1.000
    C397    C    0.48750   0.49980   0.85990   1.000
    H397    H    0.45480   0.48810   0.86290   1.000
    N48     N    0.51960   0.51340   0.90060   1.000
    C398    C    0.56610   0.52910   0.87980   1.000
    H398    H    0.59380   0.54000   0.89800   1.000
    C399    C    0.56270   0.52520   0.82620   1.000
    H399    H    0.58790   0.53320   0.80320   1.000
    C400    C    0.49360   0.44900   0.52900   1.000
    H400    H    0.52060   0.42790   0.54130   1.000
    Cu1     Cu   0.00000   0.00000   0.13324   1.000
    Cu2     Cu   0.00000   0.00000   0.23476   1.000
    N49     N    0.00000   0.00000   0.04907   1.000
    C401    C    0.00000   0.00000   0.45080   1.000
    Cu3     Cu   0.50000   0.50000   0.36676   1.000
    Cu4     Cu   0.50000   0.50000   0.26524   1.000
    N50     N    0.50000   0.50000   0.45093   1.000
    C402    C    0.50000   0.50000   0.04920   1.000
    Cu5     Cu   0.00000   0.00000   0.86676   1.000
    Cu6     Cu   0.00000   0.00000   0.76524   1.000
    N51     N    0.00000   0.00000   0.95093   1.000
    C403    C    0.00000   0.00000   0.54920   1.000
    Cu7     Cu   0.50000   0.50000   0.63324   1.000
    Cu8     Cu   0.50000   0.50000   0.73476   1.000
    N52     N    0.50000   0.50000   0.54907   1.000
    C404    C    0.50000   0.50000   0.95080   1.000
    Cu9     Cu   0.52359   0.04379   0.00000   1.000
    N53     N    0.56450   0.11420   0.00000   1.000
    N54     N    0.61800   0.20070   0.00000   1.000
    C405    C    0.53540   0.15880   0.00000   1.000
    C406    C    0.56200   0.20690   0.00000   1.000
    C407    C    0.61890   0.10790   0.00000   1.000
    C408    C    0.64600   0.15410   0.00000   1.000
    Cu10    Cu   0.47641   0.95621   0.00000   1.000
    N55     N    0.43550   0.88580   0.00000   1.000
    N56     N    0.38200   0.79930   0.00000   1.000
    C409    C    0.46460   0.84120   0.00000   1.000
    C410    C    0.43800   0.79310   0.00000   1.000
    C411    C    0.38110   0.89210   0.00000   1.000
    C412    C    0.35400   0.84590   0.00000   1.000
    Cu11    Cu   0.95621   0.52359   0.00000   1.000
    N57     N    0.88580   0.56450   0.00000   1.000
    N58     N    0.79930   0.61800   0.00000   1.000
    C413    C    0.84120   0.53540   0.00000   1.000
    C414    C    0.79310   0.56200   0.00000   1.000
    C415    C    0.89210   0.61890   0.00000   1.000
    C416    C    0.84590   0.64600   0.00000   1.000
    Cu12    Cu   0.04379   0.47641   0.00000   1.000
    N59     N    0.11420   0.43550   0.00000   1.000
    N60     N    0.20070   0.38200   0.00000   1.000
    C417    C    0.15880   0.46460   0.00000   1.000
    C418    C    0.20690   0.43800   0.00000   1.000
    C419    C    0.10790   0.38110   0.00000   1.000
    C420    C    0.15410   0.35400   0.00000   1.000
    Cu13    Cu   0.97641   0.54379   0.50000   1.000
    N61     N    0.93550   0.61420   0.50000   1.000
    N62     N    0.88200   0.70070   0.50000   1.000
    C421    C    0.96460   0.65880   0.50000   1.000
    C422    C    0.93800   0.70690   0.50000   1.000
    C423    C    0.88110   0.60790   0.50000   1.000
    C424    C    0.85400   0.65410   0.50000   1.000
    Cu14    Cu   0.02359   0.45621   0.50000   1.000
    N63     N    0.06450   0.38580   0.50000   1.000
    N64     N    0.11800   0.29930   0.50000   1.000
    C425    C    0.03540   0.34120   0.50000   1.000
    C426    C    0.06200   0.29310   0.50000   1.000
    C427    C    0.11890   0.39210   0.50000   1.000
    C428    C    0.14600   0.34590   0.50000   1.000
    Cu15    Cu   0.54379   0.02359   0.50000   1.000
    N65     N    0.61420   0.06450   0.50000   1.000
    N66     N    0.70070   0.11800   0.50000   1.000
    C429    C    0.65880   0.03540   0.50000   1.000
    C430    C    0.70690   0.06200   0.50000   1.000
    C431    C    0.60790   0.11890   0.50000   1.000
    C432    C    0.65410   0.14600   0.50000   1.000
    Cu16    Cu   0.45621   0.97641   0.50000   1.000
    N67     N    0.38580   0.93550   0.50000   1.000
    N68     N    0.29930   0.88200   0.50000   1.000
    C433    C    0.34120   0.96460   0.50000   1.000
    C434    C    0.29310   0.93800   0.50000   1.000
    C435    C    0.39210   0.88110   0.50000   1.000
    C436    C    0.34590   0.85400   0.50000   1.000
    C437    C    0.66412   0.83588   0.25000   1.000
    H401    H    0.63950   0.86050   0.25000   1.000
    C438    C    0.73690   0.76310   0.25000   1.000
    H402    H    0.76150   0.73850   0.25000   1.000
    C439    C    0.33588   0.16412   0.25000   1.000
    H403    H    0.36050   0.13950   0.25000   1.000
    C440    C    0.26310   0.23690   0.25000   1.000
    H404    H    0.23850   0.26150   0.25000   1.000
    C441    C    0.16412   0.66412   0.25000   1.000
    H405    H    0.13950   0.63950   0.25000   1.000
    C442    C    0.23690   0.73690   0.25000   1.000
    H406    H    0.26150   0.76150   0.25000   1.000
    C443    C    0.83588   0.33588   0.25000   1.000
    H407    H    0.86050   0.36050   0.25000   1.000
    C444    C    0.76310   0.26310   0.25000   1.000
    H408    H    0.73850   0.23850   0.25000   1.000
    C445    C    0.33588   0.16412   0.75000   1.000
    H409    H    0.36050   0.13950   0.75000   1.000
    C446    C    0.26310   0.23690   0.75000   1.000
    H410    H    0.23850   0.26150   0.75000   1.000
    C447    C    0.66412   0.83588   0.75000   1.000
    H411    H    0.63950   0.86050   0.75000   1.000
    C448    C    0.73690   0.76310   0.75000   1.000
    H412    H    0.76150   0.73850   0.75000   1.000
    C449    C    0.83588   0.33588   0.75000   1.000
    H413    H    0.86050   0.36050   0.75000   1.000
    C450    C    0.76310   0.26310   0.75000   1.000
    H414    H    0.73850   0.23850   0.75000   1.000
    C451    C    0.16412   0.66412   0.75000   1.000
    H415    H    0.13950   0.63950   0.75000   1.000
    C452    C    0.23690   0.73690   0.75000   1.000
    H416    H    0.26150   0.76150   0.75000   1.000
