data_functionalizedCrystal
_audit_creation_method	'EQeq! by Chris Wilmer'
_symmetry_space_group_name_H-M	'P1'
_symmetry_Int_Tables_number	1
_symmetry_cell_setting	triclinic
loop_
_symmetry_equiv_pos_as_xyz
  x,y,z
_cell_length_a	32.6492
_cell_length_b	32.6492
_cell_length_c	32.6492
_cell_angle_alpha	60
_cell_angle_beta	60
_cell_angle_gamma	60
loop_
_atom_site_label
_atom_site_type_symbol
_atom_site_fract_x
_atom_site_fract_y
_atom_site_fract_z
_atom_site_charge
Mof_Cu	Cu	0.75524	0	0.24476	0.875
Mof_Cu	Cu	-7.39141e-17	0.6739	-0	0.865
Mof_Cu	Cu	-1.84785e-17	0.24476	0.75524	0.875
Mof_Cu	Cu	1.84785e-17	-3.69571e-17	0.6739	0.866
Mof_Cu	Cu	0.3261	0.6739	-0	0.893
Mof_Cu	Cu	0.24476	0	0.75524	0.876
Mof_Cu	Cu	0.3261	0	-0	0.866
Mof_Cu	Cu	0.3261	-3.69571e-17	0.6739	0.893
Mof_Cu	Cu	0.75524	0.24476	-0	0.876
Mof_Cu	Cu	-0	0	0.24476	0.844
Mof_Cu	Cu	0.6739	0.3261	-0	0.893
Mof_Cu	Cu	0.6739	1.84785e-17	0.3261	0.893
Mof_Cu	Cu	0.24476	0	-0	0.844
Mof_Cu	Cu	-5.54356e-17	0.3261	0.6739	0.893
Mof_Cu	Cu	-0	0.75524	-0	0.848
Mof_Cu	Cu	-1.84785e-17	0.3261	-0	0.866
Mof_Cu	Cu	-9.23927e-18	0.6739	0.3261	0.893
Mof_Cu	Cu	-0	0.24476	-0	0.844
Mof_Cu	Cu	0.24476	0.75524	-0	0.876
Mof_Cu	Cu	0.6739	0	-0	0.866
Mof_Cu	Cu	-1.84785e-17	0	0.75524	0.848
Mof_Cu	Cu	9.23927e-18	1.84785e-17	0.3261	0.866
Mof_Cu	Cu	0.75524	0	-0	0.848
Mof_Cu	Cu	-5.54356e-17	0.75524	0.24476	0.876
Mof_H 	H 	0.7363	0.7375	0.0645	0.099
Mof_H 	H 	0.7375	0.0645	0.7363	0.099
Mof_H 	H 	0.0645	0.4617	0.7375	0.099
Mof_H 	H 	0.7375	0.0645	0.4617	0.099
Mof_H 	H 	0.0645	0.7363	0.7375	0.099
Mof_H 	H 	0.1606	0.9664	0.591	0.129
Mof_H 	H 	0.0583	0.4725	0.9417	0.05
Mof_H 	H 	0.5275	0.4725	0.9417	0.064
Mof_H 	H 	0.718	0.0336	0.8394	0.127
Mof_H 	H 	0.5383	0.2625	0.9355	0.099
Mof_H 	H 	0.9355	0.5383	0.2637	0.099
Mof_H 	H 	0.987	0.7062	0.1534	0.089
Mof_H 	H 	0.718	0.409	0.8394	0.134
Mof_H 	H 	0.591	0.1606	0.9664	0.129
Mof_H 	H 	0.7375	0.4617	0.0645	0.099
Mof_H 	H 	0.0563	0.6009	0.9437	0.001
Mof_H 	H 	0.9437	0.6009	0.0563	0.001
Mof_H 	H 	0.0563	0.9437	0.3991	0.001
Mof_H 	H 	0.409	0.718	0.8394	0.134
Mof_H 	H 	0.9417	0.5275	0.0583	0.05
Mof_H 	H 	0.9664	0.591	0.282	0.132
Mof_H 	H 	0.8394	0.409	0.0336	0.124
Mof_H 	H 	0.7375	0.7363	0.0645	0.099
Mof_H 	H 	0.013	0.2938	0.8466	0.074
Mof_H 	H 	0.8394	0.0336	0.718	0.127
Mof_H 	H 	0.2637	0.2625	0.9355	0.099
Mof_H 	H 	0.6009	0.9437	0.0563	0.001
Mof_H 	H 	0.7363	0.4617	0.7375	0.099
Mof_H 	H 	0.0336	0.8394	0.409	0.124
Mof_H 	H 	0.0645	0.4617	0.7363	0.099
Mof_H 	H 	0.2938	0.013	0.8466	0.074
Mof_H 	H 	0.409	0.0336	0.8394	0.124
Mof_H 	H 	0.7363	0.4617	0.0645	0.099
Mof_H 	H 	0.8466	0.8466	0.2938	0.093
Mof_H 	H 	0.0583	0.9417	0.5275	0.05
Mof_H 	H 	0.282	0.9664	0.1606	0.128
Mof_H 	H 	0.9437	0.0563	0.3991	0.001
Mof_H 	H 	0.9664	0.282	0.591	0.132
Mof_H 	H 	0.9664	0.591	0.1606	0.129
Mof_H 	H 	0.987	0.1534	0.7062	0.089
Mof_H 	H 	0.4725	0.5275	0.0583	0.072
Mof_H 	H 	0.409	0.0336	0.718	0.12
Mof_H 	H 	0.6009	0.0563	0.3991	0.01
Mof_H 	H 	0.718	0.0336	0.409	0.12
Mof_H 	H 	0.5275	0.4725	0.0583	0.072
Mof_H 	H 	0.3991	0.0563	0.9437	0.001
Mof_H 	H 	0.3991	0.6009	0.9437	-0.005
Mof_H 	H 	0.2637	0.9355	0.2625	0.099
Mof_H 	H 	0.1606	0.282	0.9664	0.128
Mof_H 	H 	0.9417	0.5275	0.4725	0.064
Mof_H 	H 	0.9355	0.2625	0.2637	0.099
Mof_H 	H 	0.8466	0.013	0.2938	0.074
Mof_H 	H 	0.5383	0.2637	0.9355	0.099
Mof_H 	H 	0.5275	0.0583	0.9417	0.05
Mof_H 	H 	0.7363	0.0645	0.4617	0.099
Mof_H 	H 	0.0645	0.7375	0.4617	0.099
Mof_H 	H 	0.0583	0.5275	0.4725	0.072
Mof_H 	H 	0.6009	0.0563	0.9437	0.001
Mof_H 	H 	0.9437	0.3991	0.6009	-0.005
Mof_H 	H 	0.0645	0.7375	0.7363	0.099
Mof_H 	H 	0.7062	0.1534	0.987	0.089
Mof_H 	H 	0.0583	0.5275	0.9417	0.05
Mof_H 	H 	0.2625	0.9355	0.5383	0.099
Mof_H 	H 	0.1606	0.591	0.282	0.118
Mof_H 	H 	0.8466	0.8466	0.013	0.084
Mof_H 	H 	0.2637	0.2625	0.5383	0.099
Mof_H 	H 	0.7375	0.7363	0.4617	0.099
Mof_H 	H 	0.8394	0.409	0.718	0.134
Mof_H 	H 	0.9355	0.2637	0.5383	0.099
Mof_H 	H 	0.013	0.8466	0.8466	0.084
Mof_H 	H 	0.9417	0.4725	0.0583	0.05
Mof_H 	H 	0.0645	0.7363	0.4617	0.099
Mof_H 	H 	0.5383	0.2637	0.2625	0.099
Mof_H 	H 	0.1534	0.987	0.7062	0.089
Mof_H 	H 	0.6009	0.9437	0.3991	-0.005
Mof_H 	H 	0.4617	0.7375	0.7363	0.099
Mof_H 	H 	0.2637	0.5383	0.2625	0.099
Mof_H 	H 	0.2625	0.2637	0.5383	0.099
Mof_H 	H 	0.4725	0.9417	0.0583	0.05
Mof_H 	H 	0.9417	0.4725	0.5275	0.064
Mof_H 	H 	0.5383	0.2625	0.2637	0.099
Mof_H 	H 	0.1534	0.1534	0.987	0.081
Mof_H 	H 	0.2625	0.2637	0.9355	0.099
Mof_H 	H 	0.9355	0.2637	0.2625	0.099
Mof_H 	H 	0.9437	0.3991	0.0563	0.001
Mof_H 	H 	0.0336	0.718	0.409	0.12
Mof_H 	H 	0.7363	0.0645	0.7375	0.099
Mof_H 	H 	0.9664	0.282	0.1606	0.128
Mof_H 	H 	0.7062	0.1534	0.1534	0.069
Mof_H 	H 	0.9355	0.2625	0.5383	0.099
Mof_H 	H 	0.9417	0.0583	0.4725	0.05
Mof_H 	H 	0.5275	0.9417	0.0583	0.05
Mof_H 	H 	0.1534	0.7062	0.1534	0.069
Mof_H 	H 	0.409	0.8394	0.0336	0.124
Mof_H 	H 	0.2938	0.8466	0.013	0.074
Mof_H 	H 	0.282	0.1606	0.591	0.118
Mof_H 	H 	0.8394	0.718	0.0336	0.127
Mof_H 	H 	0.9664	0.1606	0.591	0.129
Mof_H 	H 	0.0336	0.409	0.8394	0.124
Mof_H 	H 	0.0336	0.718	0.8394	0.127
Mof_H 	H 	0.2625	0.9355	0.2637	0.099
Mof_H 	H 	0.5383	0.9355	0.2637	0.099
Mof_H 	H 	0.9664	0.1606	0.282	0.128
Mof_H 	H 	0.2637	0.9355	0.5383	0.099
Mof_H 	H 	0.7375	0.4617	0.7363	0.099
Mof_H 	H 	0.282	0.591	0.9664	0.132
Mof_H 	H 	0.718	0.409	0.0336	0.12
Mof_H 	H 	0.5383	0.9355	0.2625	0.099
Mof_H 	H 	0.4617	0.0645	0.7375	0.099
Mof_H 	H 	0.987	0.1534	0.1534	0.081
Mof_H 	H 	0.1606	0.591	0.9664	0.129
Mof_H 	H 	0.9417	0.0583	0.5275	0.05
Mof_H 	H 	0.0563	0.6009	0.3991	0.01
Mof_H 	H 	0.3991	0.9437	0.0563	0.001
Mof_H 	H 	0.7363	0.7375	0.4617	0.099
Mof_H 	H 	0.591	0.9664	0.282	0.132
Mof_H 	H 	0.0336	0.409	0.718	0.12
Mof_H 	H 	0.9437	0.6009	0.3991	-0.005
Mof_H 	H 	0.0563	0.3991	0.9437	0.001
Mof_H 	H 	0.0583	0.4725	0.5275	0.072
Mof_H 	H 	0.0563	0.9437	0.6009	0.001
Mof_H 	H 	0.6009	0.3991	0.9437	-0.005
Mof_H 	H 	0.013	0.8466	0.2938	0.074
Mof_H 	H 	0.8394	0.0336	0.409	0.124
Mof_H 	H 	0.4725	0.5275	0.9417	0.064
Mof_H 	H 	0.3991	0.6009	0.0563	0.01
Mof_H 	H 	0.4617	0.7363	0.7375	0.099
Mof_H 	H 	0.1534	0.987	0.1534	0.081
Mof_H 	H 	0.2625	0.5383	0.2637	0.099
Mof_H 	H 	0.282	0.591	0.1606	0.118
Mof_H 	H 	0.8466	0.2938	0.8466	0.093
Mof_H 	H 	0.591	0.282	0.1606	0.118
Mof_H 	H 	0.0583	0.9417	0.4725	0.05
Mof_H 	H 	0.8466	0.2938	0.013	0.074
Mof_H 	H 	0.282	0.1606	0.9664	0.128
Mof_H 	H 	0.2938	0.8466	0.8466	0.093
Mof_H 	H 	0.591	0.9664	0.1606	0.129
Mof_H 	H 	0.1534	0.1534	0.7062	0.069
Mof_H 	H 	0.4617	0.7375	0.0645	0.099
Mof_H 	H 	0.4725	0.9417	0.5275	0.064
Mof_H 	H 	0.9355	0.5383	0.2625	0.099
Mof_H 	H 	0.7062	0.987	0.1534	0.089
Mof_H 	H 	0.8394	0.718	0.409	0.134
Mof_H 	H 	0.718	0.8394	0.0336	0.127
Mof_H 	H 	0.718	0.8394	0.409	0.134
Mof_H 	H 	0.409	0.718	0.0336	0.12
Mof_H 	H 	0.3991	0.0563	0.6009	0.01
Mof_H 	H 	0.1534	0.7062	0.987	0.089
Mof_H 	H 	0.9437	0.0563	0.6009	0.001
Mof_H 	H 	0.2637	0.5383	0.9355	0.099
Mof_H 	H 	0.4725	0.0583	0.9417	0.05
Mof_H 	H 	0.5275	0.9417	0.4725	0.064
Mof_H 	H 	0.6009	0.3991	0.0563	0.01
Mof_H 	H 	0.1606	0.282	0.591	0.118
Mof_H 	H 	0.2625	0.5383	0.9355	0.099
Mof_H 	H 	0.409	0.8394	0.718	0.134
Mof_H 	H 	0.591	0.282	0.9664	0.132
Mof_H 	H 	0.282	0.9664	0.591	0.132
Mof_H 	H 	0.4617	0.7363	0.0645	0.099
Mof_H 	H 	0.5275	0.0583	0.4725	0.072
Mof_H 	H 	0.4617	0.0645	0.7363	0.099
Mof_H 	H 	0.0563	0.3991	0.6009	0.01
Mof_H 	H 	0.0336	0.8394	0.718	0.127
Mof_H 	H 	0.4725	0.0583	0.5275	0.072
Mof_H 	H 	0.1606	0.9664	0.282	0.128
Mof_H 	H 	0.591	0.1606	0.282	0.118
Mof_H 	H 	0.8466	0.013	0.8466	0.084
Mof_H 	H 	0.3991	0.9437	0.6009	-0.005
Mof_C 	C 	0.0332	0.459	0.541	-0.122
Mof_C 	C 	0.459	0.0332	0.541	-0.122
Mof_C 	C 	0.9668	0.459	0.541	-0.048
Mof_C 	C 	0.3935	0.0287	0.8257	-0.179
Mof_C 	C 	0.67488	0.17108	0.17108	-0.045
Mof_C 	C 	0.24698	0.9858	0.67534	0.332
Mof_C 	C 	-9.23927e-18	1.84785e-17	0.4792	-0.09
Mof_C 	C 	0.459	0.9668	0.0332	-0.017
Mof_C 	C 	0.98	0.65244	0.22138	0.017
Mof_C 	C 	0.413	0.9686	0.587	0.166
Mof_C 	C 	0.4792	0	-0	-0.09
Mof_C 	C 	0.5858	0.222	0.9702	0.256
Mof_C 	C 	0.1743	0.6065	0.2479	-0.175
Mof_C 	C 	0.6065	0.9713	0.2479	-0.184
Mof_C 	C 	0.778	0.0298	0.4142	0.243
Mof_C 	C 	0.7521	0.0287	0.3935	-0.178
Mof_C 	C 	0.9858	0.24698	0.09188	0.333
Mof_C 	C 	0.90812	0.32466	0.0142	0.334
Mof_C 	C 	0.17108	0.67488	0.98296	-0.057
Mof_C 	C 	0.85382	0.34756	0.02	0.001
Mof_C 	C 	0.778	0.778	0.4142	0.26
Mof_C 	C 	0.0332	0.9668	0.459	-0.017
Mof_C 	C 	0.4142	0.778	0.778	0.26
Mof_C 	C 	0.34756	0.77862	0.02	-0.005
Mof_C 	C 	0.90812	0.32466	0.75302	0.332
Mof_C 	C 	0.02	0.34756	0.85382	0.001
Mof_C 	C 	0.82892	0.82892	0.01704	-0.055
Mof_C 	C 	0.17108	0.17108	0.98296	-0.053
Mof_C 	C 	0.77862	0.34756	0.85382	0.021
Mof_C 	C 	0.67534	0.09188	0.24698	0.34
Mof_C 	C 	0.14618	0.98	0.65244	0.014
Mof_C 	C 	0.459	0.541	0.9668	-0.048
Mof_C 	C 	0.7521	0.0287	0.8257	-0.183
Mof_C 	C 	0.1743	0.2479	0.6065	-0.175
Mof_C 	C 	0.77862	0.34756	0.02	-0.005
Mof_C 	C 	0.587	0.0314	0.413	0.077
Mof_C 	C 	0.75302	0.0142	0.90812	0.331
Mof_C 	C 	0.8257	0.7521	0.0287	-0.183
Mof_C 	C 	0.75302	0.32466	0.0142	0.339
Mof_C 	C 	0.587	0.9686	0.413	0.166
Mof_C 	C 	0.541	0.9668	0.459	-0.048
Mof_C 	C 	0.17108	0.17108	0.67488	-0.045
Mof_C 	C 	0.3935	0.7521	0.8257	-0.186
Mof_C 	C 	0.24698	0.67534	0.9858	0.332
Mof_C 	C 	0.3935	0.7521	0.0287	-0.178
Mof_C 	C 	0.82892	0.32512	0.01704	-0.049
Mof_C 	C 	0.2479	0.6065	0.1743	-0.175
Mof_C 	C 	0.32512	0.01704	0.82892	-0.049
Mof_C 	C 	0.09188	0.9858	0.67534	0.331
Mof_C 	C 	0.0287	0.3935	0.7521	-0.178
Mof_C 	C 	0.413	0.587	0.0314	0.077
Mof_C 	C 	0.22138	0.14618	0.98	0.008
Mof_C 	C 	0.0314	0.413	0.9686	0.135
Mof_C 	C 	0.98	0.22138	0.14618	0.008
Mof_C 	C 	0.32466	0.0142	0.75302	0.339
Mof_C 	C 	0.75302	0.90812	0.0142	0.331
Mof_C 	C 	0.9702	0.5858	0.222	0.256
Mof_C 	C 	0.4142	0.778	0.0298	0.243
Mof_C 	C 	0.9668	0.0332	0.541	-0.018
Mof_C 	C 	0.4792	0	0.5208	-0.001
Mof_C 	C 	0.1743	0.6065	0.9713	-0.184
Mof_C 	C 	0.02	0.77862	0.85382	0.009
Mof_C 	C 	0.09188	0.24698	0.9858	0.333
Mof_C 	C 	0.9702	0.222	0.222	0.25
Mof_C 	C 	0.541	0.459	0.0332	-0.122
Mof_C 	C 	0.02	0.85382	0.77862	0.009
Mof_C 	C 	0.9668	0.459	0.0332	-0.017
Mof_C 	C 	0.778	0.778	0.0298	0.25
Mof_C 	C 	0.5858	0.222	0.222	0.237
Mof_C 	C 	0.9686	0.413	0.587	0.166
Mof_C 	C 	0.77862	0.02	0.34756	-0.005
Mof_C 	C 	0.587	0.413	0.9686	0.166
Mof_C 	C 	0.9713	0.2479	0.6065	-0.184
Mof_C 	C 	0.5208	0.4792	-0	-0.001
Mof_C 	C 	0.9686	0.413	0.0314	0.135
Mof_C 	C 	0.6065	0.9713	0.1743	-0.184
Mof_C 	C 	0.9713	0.2479	0.1743	-0.181
Mof_C 	C 	3.69571e-17	0	0.5208	-0.09
Mof_C 	C 	0.9686	0.0314	0.413	0.135
Mof_C 	C 	0.85382	0.77862	0.34756	0.021
Mof_C 	C 	0.98	0.14618	0.22138	0.008
Mof_C 	C 	0.02	0.85382	0.34756	0.001
Mof_C 	C 	-4.61963e-17	0.5208	0.4792	-0.001
Mof_C 	C 	0.9858	0.24698	0.67534	0.332
Mof_C 	C 	0.0298	0.778	0.778	0.25
Mof_C 	C 	0.65244	0.14618	0.22138	-0.011
Mof_C 	C 	0.14618	0.98	0.22138	0.008
Mof_C 	C 	0.67534	0.09188	0.9858	0.331
Mof_C 	C 	0.01704	0.32512	0.82892	-0.049
Mof_C 	C 	0.02	0.34756	0.77862	-0.005
Mof_C 	C 	0.8257	0.7521	0.3935	-0.186
Mof_C 	C 	0.459	0.0332	0.9668	-0.017
Mof_C 	C 	0.75302	0.0142	0.32466	0.339
Mof_C 	C 	0.0314	0.413	0.587	0.077
Mof_C 	C 	0.22138	0.98	0.14618	0.008
Mof_C 	C 	0.09188	0.24698	0.67534	0.34
Mof_C 	C 	0.5208	1.84785e-17	0.4792	-0.001
Mof_C 	C 	0.4142	0.0298	0.778	0.243
Mof_C 	C 	0.9858	0.09188	0.67534	0.331
Mof_C 	C 	0.98	0.14618	0.65244	0.014
Mof_C 	C 	0.222	0.9702	0.222	0.25
Mof_C 	C 	0.9713	0.1743	0.2479	-0.181
Mof_C 	C 	0.65244	0.98	0.14618	0.014
Mof_C 	C 	0.0287	0.8257	0.7521	-0.183
Mof_C 	C 	0.98	0.22138	0.65244	0.017
Mof_C 	C 	0.65244	0.22138	0.98	0.017
Mof_C 	C 	0.34756	0.85382	0.77862	0.021
Mof_C 	C 	0.7521	0.3935	0.8257	-0.186
Mof_C 	C 	0.222	0.5858	0.222	0.237
Mof_C 	C 	0.0314	0.587	0.9686	0.135
Mof_C 	C 	0.8257	0.3935	0.0287	-0.179
Mof_C 	C 	0.9858	0.67534	0.09188	0.331
Mof_C 	C 	0.17108	0.67488	0.17108	-0.045
Mof_C 	C 	0.0287	0.7521	0.3935	-0.178
Mof_C 	C 	0.2479	0.9713	0.1743	-0.181
Mof_C 	C 	0.0287	0.8257	0.3935	-0.179
Mof_C 	C 	0.0142	0.32466	0.75302	0.339
Mof_C 	C 	0.9686	0.587	0.413	0.166
Mof_C 	C 	0.9702	0.222	0.5858	0.256
Mof_C 	C 	0.0314	0.9686	0.587	0.135
Mof_C 	C 	0.82892	0.01704	0.32512	-0.049
Mof_C 	C 	0.0142	0.90812	0.32466	0.334
Mof_C 	C 	0.2479	0.1743	0.6065	-0.175
Mof_C 	C 	0.778	0.4142	0.778	0.26
Mof_C 	C 	0.413	0.0314	0.9686	0.135
Mof_C 	C 	0.2479	0.6065	0.9713	-0.184
Mof_C 	C 	0.9686	0.587	0.0314	0.135
Mof_C 	C 	0.65244	0.22138	0.14618	-0.011
Mof_C 	C 	0.09188	0.67534	0.9858	0.331
Mof_C 	C 	0.98296	0.17108	0.67488	-0.057
Mof_C 	C 	0.65244	0.14618	0.98	0.014
Mof_C 	C 	0.6065	0.1743	0.9713	-0.184
Mof_C 	C 	0.9686	0.0314	0.587	0.135
Mof_C 	C 	0.02	0.77862	0.34756	-0.005
Mof_C 	C 	0.85382	0.02	0.77862	0.009
Mof_C 	C 	0.541	0.0332	0.459	-0.122
Mof_C 	C 	0.67534	0.9858	0.09188	0.331
Mof_C 	C 	0.5858	0.9702	0.222	0.256
Mof_C 	C 	-7.39141e-17	0.4792	0.5208	-0.001
Mof_C 	C 	0.82892	0.82892	0.32512	-0.058
Mof_C 	C 	-0	0.4792	-0	-0.09
Mof_C 	C 	0.9713	0.6065	0.2479	-0.184
Mof_C 	C 	0.85382	0.02	0.34756	0.001
Mof_C 	C 	0.9668	0.541	0.459	-0.048
Mof_C 	C 	0.75302	0.32466	0.90812	0.332
Mof_C 	C 	0.9713	0.1743	0.6065	-0.184
Mof_C 	C 	0.34756	0.77862	0.85382	0.021
Mof_C 	C 	0.90812	0.0142	0.32466	0.334
Mof_C 	C 	0.32466	0.90812	0.0142	0.334
Mof_C 	C 	0.0314	0.9686	0.413	0.135
Mof_C 	C 	0.1743	0.9713	0.2479	-0.181
Mof_C 	C 	0.0332	0.541	0.9668	-0.018
Mof_C 	C 	0.32466	0.90812	0.75302	0.332
Mof_C 	C 	0.8257	0.3935	0.7521	-0.186
Mof_C 	C 	0.0287	0.3935	0.8257	-0.179
Mof_C 	C 	0.90812	0.0142	0.75302	0.331
Mof_C 	C 	0.85382	0.34756	0.77862	0.021
Mof_C 	C 	0.3935	0.8257	0.7521	-0.186
Mof_C 	C 	0.14618	0.22138	0.98	0.008
Mof_C 	C 	0.778	0.0298	0.778	0.25
Mof_C 	C 	0.413	0.587	0.9686	0.166
Mof_C 	C 	0.6065	0.1743	0.2479	-0.175
Mof_C 	C 	0.34756	0.85382	0.02	0.001
Mof_C 	C 	0.77862	0.02	0.85382	0.009
Mof_C 	C 	0.0142	0.32466	0.90812	0.334
Mof_C 	C 	0.32512	0.82892	0.82892	-0.058
Mof_C 	C 	0.22138	0.14618	0.65244	-0.011
Mof_C 	C 	0.1743	0.2479	0.9713	-0.181
Mof_C 	C 	0.34756	0.02	0.77862	-0.005
Mof_C 	C 	0.222	0.9702	0.5858	0.256
Mof_C 	C 	0.222	0.222	0.9702	0.25
Mof_C 	C 	0.22138	0.65244	0.98	0.017
Mof_C 	C 	0.587	0.413	0.0314	0.077
Mof_C 	C 	0.541	0.9668	0.0332	-0.018
Mof_C 	C 	0.0142	0.75302	0.32466	0.339
Mof_C 	C 	0.9858	0.09188	0.24698	0.333
Mof_C 	C 	0.8257	0.0287	0.7521	-0.183
Mof_C 	C 	0.778	0.4142	0.0298	0.243
Mof_C 	C 	0.6065	0.2479	0.1743	-0.175
Mof_C 	C 	0.9713	0.6065	0.1743	-0.184
Mof_C 	C 	0.67534	0.24698	0.09188	0.34
Mof_C 	C 	0.17108	0.98296	0.17108	-0.053
Mof_C 	C 	0.0332	0.541	0.459	-0.122
Mof_C 	C 	0.9858	0.67534	0.24698	0.332
Mof_C 	C 	0.459	0.9668	0.541	-0.048
Mof_C 	C 	0.459	0.541	0.0332	-0.122
Mof_C 	C 	0.7521	0.3935	0.0287	-0.178
Mof_C 	C 	0.09188	0.9858	0.24698	0.333
Mof_C 	C 	0.587	0.0314	0.9686	0.135
Mof_C 	C 	0.82892	0.01704	0.82892	-0.055
Mof_C 	C 	0.09188	0.67534	0.24698	0.34
Mof_C 	C 	0.0142	0.75302	0.90812	0.331
Mof_C 	C 	0.32466	0.75302	0.90812	0.332
Mof_C 	C 	0.32466	0.0142	0.90812	0.334
Mof_C 	C 	0.24698	0.9858	0.09188	0.333
Mof_C 	C 	0.75302	0.90812	0.32466	0.332
Mof_C 	C 	0.0332	0.9668	0.541	-0.018
Mof_C 	C 	0.98296	0.67488	0.17108	-0.057
Mof_C 	C 	0.3935	0.8257	0.0287	-0.179
Mof_C 	C 	0.90812	0.75302	0.32466	0.332
Mof_C 	C 	0.0287	0.7521	0.8257	-0.183
Mof_C 	C 	0.3935	0.0287	0.7521	-0.178
Mof_C 	C 	0.65244	0.98	0.22138	0.017
Mof_C 	C 	0.14618	0.65244	0.98	0.014
Mof_C 	C 	0.22138	0.65244	0.14618	-0.011
Mof_C 	C 	0.24698	0.67534	0.09188	0.34
Mof_C 	C 	0.541	0.459	0.9668	-0.048
Mof_C 	C 	0.67534	0.9858	0.24698	0.332
Mof_C 	C 	0.67488	0.17108	0.98296	-0.057
Mof_C 	C 	0.413	0.9686	0.0314	0.135
Mof_C 	C 	0.85382	0.77862	0.02	0.009
Mof_C 	C 	0.0298	0.778	0.4142	0.243
Mof_C 	C 	0.7521	0.8257	0.3935	-0.186
Mof_C 	C 	0.14618	0.65244	0.22138	-0.011
Mof_C 	C 	0.2479	0.1743	0.9713	-0.181
Mof_C 	C 	0.77862	0.85382	0.02	0.009
Mof_C 	C 	0.1743	0.9713	0.6065	-0.184
Mof_C 	C 	0.5208	0	-0	-0.09
Mof_C 	C 	0.24698	0.09188	0.67534	0.34
Mof_C 	C 	0.6065	0.2479	0.9713	-0.184
Mof_C 	C 	0.67534	0.24698	0.9858	0.332
Mof_C 	C 	0.9668	0.0332	0.459	-0.017
Mof_C 	C 	0.24698	0.09188	0.9858	0.333
Mof_C 	C 	0.32466	0.75302	0.0142	0.339
Mof_C 	C 	0.541	0.0332	0.9668	-0.018
Mof_C 	C 	0.0298	0.4142	0.778	0.243
Mof_C 	C 	0.14618	0.22138	0.65244	-0.011
Mof_C 	C 	0.2479	0.9713	0.6065	-0.184
Mof_C 	C 	0.0142	0.90812	0.75302	0.331
Mof_C 	C 	0.90812	0.75302	0.0142	0.331
Mof_C 	C 	0.82892	0.32512	0.82892	-0.058
Mof_C 	C 	0.67488	0.98296	0.17108	-0.057
Mof_C 	C 	0.0332	0.459	0.9668	-0.017
Mof_C 	C 	0.77862	0.85382	0.34756	0.021
Mof_C 	C 	0.587	0.9686	0.0314	0.135
Mof_C 	C 	3.69571e-17	0.5208	-0	-0.09
Mof_C 	C 	0.22138	0.98	0.65244	0.017
Mof_C 	C 	0.222	0.222	0.5858	0.237
Mof_C 	C 	0.8257	0.0287	0.3935	-0.179
Mof_C 	C 	0.34756	0.02	0.85382	0.001
Mof_C 	C 	0.17108	0.98296	0.67488	-0.057
Mof_C 	C 	0.9668	0.541	0.0332	-0.018
Mof_C 	C 	0.413	0.0314	0.587	0.077
Mof_C 	C 	0.7521	0.8257	0.0287	-0.183
Mof_C 	C 	0.32512	0.82892	0.01704	-0.049
Mof_C 	C 	0.98296	0.17108	0.17108	-0.053
Mof_C 	C 	0.98	0.65244	0.14618	0.014
Mof_C 	C 	0.01704	0.82892	0.82892	-0.055
Mof_C 	C 	0.0314	0.587	0.413	0.077
Mof_C 	C 	0.222	0.5858	0.9702	0.256
Mof_C 	C 	0.4792	0.5208	-0	-0.001
Mof_C 	C 	0.01704	0.82892	0.32512	-0.049
Mof_N 	N 	0.39186	0	-0	-0.297
Mof_N 	N 	0.60814	0	0.39186	-0.254
Mof_N 	N 	0.39186	0.60814	-0	-0.254
Mof_N 	N 	-1.84785e-17	-3.69571e-17	0.60814	-0.296
Mof_N 	N 	0.60814	0.39186	-0	-0.254
Mof_N 	N 	3.69571e-17	0.60814	-0	-0.296
Mof_N 	N 	-9.23927e-18	0	0.39186	-0.297
Mof_N 	N 	0.39186	-3.69571e-17	0.60814	-0.254
Mof_N 	N 	9.23927e-18	0.60814	0.39186	-0.254
Mof_N 	N 	0.60814	0	-0	-0.296
Mof_N 	N 	-9.23927e-17	0.39186	0.60814	-0.254
Mof_N 	N 	-0	0.39186	-0	-0.297
Mof_O 	O 	0.2211	0.07152	0.98868	-0.387
Mof_O 	O 	0.7504	0.4644	0.0348	-0.358
Mof_O 	O 	0.01235	0.92783	0.34957	-0.379
Mof_O 	O 	0.92783	0.01235	0.71025	-0.378
Mof_O 	O 	0.9652	0.2496	0.5356	-0.347
Mof_O 	O 	0.7187	0.2211	0.07152	-0.42
Mof_O 	O 	0.01132	0.7789	0.92848	-0.384
Mof_O 	O 	0.7789	0.92848	0.01132	-0.384
Mof_O 	O 	0.98765	0.65043	0.07217	-0.375
Mof_O 	O 	0.5356	0.9652	0.2496	-0.347
Mof_O 	O 	0.28975	0.07217	0.65043	-0.411
Mof_O 	O 	0.4644	0.7504	0.7504	-0.343
Mof_O 	O 	0.2813	0.01132	0.92848	-0.39
Mof_O 	O 	0.2496	0.9652	0.2496	-0.35
Mof_O 	O 	0.01235	0.71025	0.92783	-0.378
Mof_O 	O 	0.98765	0.28975	0.65043	-0.364
Mof_O 	O 	0.71025	0.01235	0.34957	-0.409
Mof_O 	O 	0.2496	0.9652	0.5356	-0.347
Mof_O 	O 	0.07152	0.2211	0.7187	-0.42
Mof_O 	O 	0.65043	0.07217	0.98765	-0.375
Mof_O 	O 	0.07152	0.98868	0.2211	-0.387
Mof_O 	O 	0.4644	0.7504	0.0348	-0.358
Mof_O 	O 	0.2813	0.92848	0.7789	-0.368
Mof_O 	O 	0.71025	0.34957	0.92783	-0.363
Mof_O 	O 	0.98765	0.65043	0.28975	-0.364
Mof_O 	O 	0.07152	0.98868	0.7187	-0.381
Mof_O 	O 	0.7789	0.01132	0.92848	-0.384
Mof_O 	O 	0.7504	0.4644	0.7504	-0.343
Mof_O 	O 	0.7789	0.2813	0.01132	-0.417
Mof_O 	O 	0.92848	0.01132	0.2813	-0.39
Mof_O 	O 	0.7504	0.7504	0.0348	-0.355
Mof_O 	O 	0.7504	0.0348	0.4644	-0.358
Mof_O 	O 	0.2813	0.7789	0.92848	-0.368
Mof_O 	O 	0.98868	0.7187	0.07152	-0.381
Mof_O 	O 	0.92783	0.71025	0.34957	-0.363
Mof_O 	O 	0.7187	0.2211	0.98868	-0.37
Mof_O 	O 	0.2211	0.98868	0.07152	-0.387
Mof_O 	O 	0.92848	0.7789	0.01132	-0.384
Mof_O 	O 	0.7187	0.07152	0.2211	-0.42
Mof_O 	O 	0.34957	0.01235	0.92783	-0.379
Mof_O 	O 	0.98868	0.7187	0.2211	-0.37
Mof_O 	O 	0.71025	0.34957	0.01235	-0.409
Mof_O 	O 	0.71025	0.92783	0.01235	-0.378
Mof_O 	O 	0.2496	0.5356	0.2496	-0.363
Mof_O 	O 	0.34957	0.01235	0.71025	-0.409
Mof_O 	O 	0.01235	0.92783	0.71025	-0.378
Mof_O 	O 	0.92783	0.01235	0.34957	-0.379
Mof_O 	O 	0.0348	0.7504	0.4644	-0.358
Mof_O 	O 	0.2211	0.98868	0.7187	-0.37
Mof_O 	O 	0.01235	0.34957	0.71025	-0.409
Mof_O 	O 	0.28975	0.65043	0.07217	-0.411
Mof_O 	O 	0.07217	0.98765	0.65043	-0.375
Mof_O 	O 	0.07217	0.98765	0.28975	-0.376
Mof_O 	O 	0.07152	0.7187	0.2211	-0.42
Mof_O 	O 	0.92848	0.2813	0.7789	-0.368
Mof_O 	O 	0.34957	0.71025	0.01235	-0.409
Mof_O 	O 	0.7187	0.07152	0.98868	-0.381
Mof_O 	O 	0.92848	0.7789	0.2813	-0.368
Mof_O 	O 	0.2496	0.2496	0.9652	-0.35
Mof_O 	O 	0.2211	0.07152	0.7187	-0.42
Mof_O 	O 	0.2813	0.7789	0.01132	-0.417
Mof_O 	O 	0.65043	0.07217	0.28975	-0.411
Mof_O 	O 	0.98868	0.07152	0.7187	-0.381
Mof_O 	O 	0.01235	0.34957	0.92783	-0.379
Mof_O 	O 	0.2211	0.7187	0.98868	-0.37
Mof_O 	O 	0.92783	0.34957	0.01235	-0.379
Mof_O 	O 	0.0348	0.7504	0.7504	-0.355
Mof_O 	O 	0.98765	0.07217	0.65043	-0.375
Mof_O 	O 	0.98765	0.28975	0.07217	-0.376
Mof_O 	O 	0.98765	0.07217	0.28975	-0.376
Mof_O 	O 	0.7504	0.0348	0.7504	-0.355
Mof_O 	O 	0.98868	0.2211	0.07152	-0.387
Mof_O 	O 	0.28975	0.98765	0.07217	-0.376
Mof_O 	O 	0.65043	0.98765	0.28975	-0.364
Mof_O 	O 	0.92783	0.71025	0.01235	-0.378
Mof_O 	O 	0.65043	0.98765	0.07217	-0.375
Mof_O 	O 	0.7789	0.01132	0.2813	-0.417
Mof_O 	O 	0.2813	0.01132	0.7789	-0.417
Mof_O 	O 	0.0348	0.4644	0.7504	-0.358
Mof_O 	O 	0.01132	0.2813	0.7789	-0.417
Mof_O 	O 	0.65043	0.28975	0.07217	-0.411
Mof_O 	O 	0.2496	0.5356	0.9652	-0.347
Mof_O 	O 	0.71025	0.92783	0.34957	-0.363
Mof_O 	O 	0.98868	0.07152	0.2211	-0.387
Mof_O 	O 	0.71025	0.01235	0.92783	-0.378
Mof_O 	O 	0.9652	0.2496	0.2496	-0.35
Mof_O 	O 	0.7789	0.2813	0.92848	-0.368
Mof_O 	O 	0.28975	0.07217	0.98765	-0.376
Mof_O 	O 	0.28975	0.65043	0.98765	-0.364
Mof_O 	O 	0.07152	0.7187	0.98868	-0.381
Mof_O 	O 	0.34957	0.92783	0.71025	-0.363
Mof_O 	O 	0.92848	0.01132	0.7789	-0.384
Mof_O 	O 	0.07217	0.28975	0.98765	-0.376
Mof_O 	O 	0.07217	0.28975	0.65043	-0.411
Mof_O 	O 	0.5356	0.2496	0.9652	-0.347
Mof_O 	O 	0.2211	0.7187	0.07152	-0.42
Mof_O 	O 	0.7504	0.7504	0.4644	-0.343
Mof_O 	O 	0.2813	0.92848	0.01132	-0.39
Mof_O 	O 	0.2496	0.2496	0.5356	-0.363
Mof_O 	O 	0.7789	0.92848	0.2813	-0.368
Mof_O 	O 	0.01132	0.2813	0.92848	-0.39
Mof_O 	O 	0.9652	0.5356	0.2496	-0.347
Mof_O 	O 	0.01235	0.71025	0.34957	-0.409
Mof_O 	O 	0.98868	0.2211	0.7187	-0.37
Mof_O 	O 	0.01132	0.92848	0.7789	-0.384
Mof_O 	O 	0.07217	0.65043	0.28975	-0.411
Mof_O 	O 	0.01132	0.7789	0.2813	-0.417
Mof_O 	O 	0.34957	0.71025	0.92783	-0.363
Mof_O 	O 	0.65043	0.28975	0.98765	-0.364
Mof_O 	O 	0.34957	0.92783	0.01235	-0.379
Mof_O 	O 	0.4644	0.0348	0.7504	-0.358
Mof_O 	O 	0.7187	0.98868	0.07152	-0.381
Mof_O 	O 	0.7187	0.98868	0.2211	-0.37
Mof_O 	O 	0.01132	0.92848	0.2813	-0.39
Mof_O 	O 	0.07217	0.65043	0.98765	-0.375
Mof_O 	O 	0.07152	0.2211	0.98868	-0.387
Mof_O 	O 	0.28975	0.98765	0.65043	-0.364
Mof_O 	O 	0.92848	0.2813	0.01132	-0.39
Mof_O 	O 	0.5356	0.2496	0.2496	-0.363
Mof_O 	O 	0.92783	0.34957	0.71025	-0.363
_end
