data_functionalizedCrystal
_audit_creation_method	'EQeq! by Chris Wilmer'
_symmetry_space_group_name_H-M	'P1'
_symmetry_Int_Tables_number	1
_symmetry_cell_setting	triclinic
loop_
_symmetry_equiv_pos_as_xyz
  x,y,z
_cell_length_a	32.1597
_cell_length_b	32.1597
_cell_length_c	32.1597
_cell_angle_alpha	90
_cell_angle_beta	90
_cell_angle_gamma	90
loop_
_atom_site_label
_atom_site_type_symbol
_atom_site_fract_x
_atom_site_fract_y
_atom_site_fract_z
_atom_site_charge
Mof_O 	O 	0.8361	0.0509	0.9003	-0.416
Mof_C 	C 	0.8304	0.0412	0.0101	-0.008
Mof_H 	H 	0.8296	0.0696	0.0182	0.045
Mof_C 	C 	0.6848	0.7877	0.6396	-0.018
Mof_H 	H 	0.6839	0.7858	0.6102	0.044
Mof_C 	C 	0.705	0.8215	0.6575	-0.038
Mof_H 	H 	0.7281	0.8363	0.6397	0.03
Mof_C 	C 	0.702	0.8262	0.7005	0.01
Mof_C 	C 	0.686	0.797	0.7256	-0.059
Mof_H 	H 	0.6976	0.7968	0.7545	0.035
Mof_C 	C 	0.6658	0.7632	0.7077	0.008
Mof_H 	H 	0.6531	0.7463	0.7259	0.025
Mof_C 	C 	0.7411	0.9005	0.7805	-0.022
Mof_H 	H 	0.7434	0.9023	0.8099	0.029
Mof_C 	C 	0.723	0.8658	0.7623	-0.056
Mof_H 	H 	0.7128	0.8438	0.7793	0.038
Mof_C 	C 	0.7345	0.8952	0.6944	-0.056
Mof_H 	H 	0.7323	0.8934	0.6651	0.043
Mof_C 	C 	0.7527	0.93	0.7126	-0.021
Mof_H 	H 	0.7629	0.9519	0.6957	0.03
Mof_C 	C 	0.8131	0.9855	0.7599	-0.087
Mof_H 	H 	0.8243	0.9745	0.7349	0.054
Mof_C 	C 	0.8328	0.0177	0.7802	0.029
Mof_H 	H 	0.8577	0.0292	0.7691	0.028
Mof_O 	O 	0.783	0.1032	0.8535	-0.201
Mof_O 	O 	0.6138	0.6664	0.7066	-0.237
Mof_O 	O 	0.3361	0.5509	0.4003	-0.415
Mof_C 	C 	0.3304	0.5412	0.5101	-0.007
Mof_H 	H 	0.3296	0.5696	0.5182	0.046
Mof_C 	C 	0.1848	0.2877	0.1396	-0.017
Mof_H 	H 	0.1839	0.2858	0.1102	0.045
Mof_C 	C 	0.205	0.3215	0.1575	-0.037
Mof_H 	H 	0.2281	0.3363	0.1397	0.031
Mof_C 	C 	0.202	0.3262	0.2005	0.011
Mof_C 	C 	0.186	0.297	0.2256	-0.058
Mof_H 	H 	0.1976	0.2968	0.2545	0.036
Mof_C 	C 	0.1658	0.2632	0.2077	0.009
Mof_H 	H 	0.1531	0.2463	0.2259	0.026
Mof_C 	C 	0.2411	0.4005	0.2805	-0.021
Mof_H 	H 	0.2434	0.4023	0.3099	0.03
Mof_C 	C 	0.223	0.3658	0.2623	-0.055
Mof_H 	H 	0.2128	0.3438	0.2793	0.039
Mof_C 	C 	0.2345	0.3952	0.1944	-0.056
Mof_H 	H 	0.2323	0.3934	0.1651	0.043
Mof_C 	C 	0.2527	0.43	0.2126	-0.021
Mof_H 	H 	0.2629	0.4519	0.1957	0.03
Mof_C 	C 	0.3131	0.4855	0.2599	-0.087
Mof_H 	H 	0.3243	0.4745	0.2349	0.054
Mof_C 	C 	0.3328	0.5177	0.2802	0.029
Mof_H 	H 	0.3577	0.5292	0.2691	0.028
Mof_O 	O 	0.283	0.6032	0.3535	-0.201
Mof_O 	O 	0.1138	0.1664	0.2066	-0.237
Mof_O 	O 	0.1639	0.9491	0.9003	-0.415
Mof_C 	C 	0.1696	0.9588	0.0101	-0.007
Mof_H 	H 	0.1704	0.9304	0.0182	0.046
Mof_C 	C 	0.3152	0.2123	0.6396	-0.017
Mof_H 	H 	0.3161	0.2142	0.6102	0.045
Mof_C 	C 	0.295	0.1785	0.6575	-0.037
Mof_H 	H 	0.2719	0.1637	0.6397	0.031
Mof_C 	C 	0.298	0.1738	0.7005	0.011
Mof_C 	C 	0.314	0.203	0.7256	-0.058
Mof_H 	H 	0.3024	0.2032	0.7545	0.036
Mof_C 	C 	0.3342	0.2368	0.7077	0.009
Mof_H 	H 	0.3469	0.2537	0.7259	0.026
Mof_C 	C 	0.2589	0.0995	0.7805	-0.021
Mof_H 	H 	0.2566	0.0977	0.8099	0.03
Mof_C 	C 	0.277	0.1342	0.7623	-0.055
Mof_H 	H 	0.2872	0.1562	0.7793	0.039
Mof_C 	C 	0.2655	0.1048	0.6944	-0.056
Mof_H 	H 	0.2677	0.1066	0.6651	0.043
Mof_C 	C 	0.2473	0.07	0.7126	-0.021
Mof_H 	H 	0.2371	0.0481	0.6957	0.03
Mof_C 	C 	0.1869	0.0145	0.7599	-0.087
Mof_H 	H 	0.1757	0.0255	0.7349	0.054
Mof_C 	C 	0.1672	0.9823	0.7802	0.029
Mof_H 	H 	0.1423	0.9708	0.7691	0.028
Mof_O 	O 	0.217	0.8968	0.8535	-0.201
Mof_O 	O 	0.3862	0.3336	0.7066	-0.237
Mof_O 	O 	0.6639	0.4491	0.4003	-0.415
Mof_C 	C 	0.6696	0.4588	0.5101	-0.007
Mof_H 	H 	0.6704	0.4304	0.5182	0.046
Mof_C 	C 	0.8152	0.7123	0.1396	-0.017
Mof_H 	H 	0.8161	0.7142	0.1102	0.045
Mof_C 	C 	0.795	0.6785	0.1575	-0.037
Mof_H 	H 	0.7719	0.6637	0.1397	0.031
Mof_C 	C 	0.798	0.6738	0.2005	0.011
Mof_C 	C 	0.814	0.703	0.2256	-0.058
Mof_H 	H 	0.8024	0.7032	0.2545	0.036
Mof_C 	C 	0.8342	0.7368	0.2077	0.009
Mof_H 	H 	0.8469	0.7537	0.2259	0.026
Mof_C 	C 	0.7589	0.5995	0.2805	-0.021
Mof_H 	H 	0.7566	0.5977	0.3099	0.03
Mof_C 	C 	0.777	0.6342	0.2623	-0.055
Mof_H 	H 	0.7872	0.6562	0.2793	0.039
Mof_C 	C 	0.7655	0.6048	0.1944	-0.056
Mof_H 	H 	0.7677	0.6066	0.1651	0.043
Mof_C 	C 	0.7473	0.57	0.2126	-0.021
Mof_H 	H 	0.7371	0.5481	0.1957	0.03
Mof_C 	C 	0.6869	0.5145	0.2599	-0.087
Mof_H 	H 	0.6757	0.5255	0.2349	0.054
Mof_C 	C 	0.6672	0.4823	0.2802	0.029
Mof_H 	H 	0.6423	0.4708	0.2691	0.028
Mof_O 	O 	0.717	0.3968	0.3535	-0.201
Mof_O 	O 	0.8862	0.8336	0.2066	-0.237
Mof_O 	O 	0.1639	0.0509	0.0997	-0.415
Mof_C 	C 	0.1696	0.0412	0.9899	-0.007
Mof_H 	H 	0.1704	0.0696	0.9818	0.046
Mof_C 	C 	0.3152	0.7877	0.3604	-0.017
Mof_H 	H 	0.3161	0.7858	0.3898	0.045
Mof_C 	C 	0.295	0.8215	0.3425	-0.037
Mof_H 	H 	0.2719	0.8363	0.3603	0.031
Mof_C 	C 	0.298	0.8262	0.2995	0.011
Mof_C 	C 	0.314	0.797	0.2744	-0.058
Mof_H 	H 	0.3024	0.7968	0.2455	0.036
Mof_C 	C 	0.3342	0.7632	0.2923	0.009
Mof_H 	H 	0.3469	0.7463	0.2741	0.026
Mof_C 	C 	0.2589	0.9005	0.2195	-0.021
Mof_H 	H 	0.2566	0.9023	0.1901	0.03
Mof_C 	C 	0.277	0.8658	0.2377	-0.055
Mof_H 	H 	0.2872	0.8438	0.2207	0.039
Mof_C 	C 	0.2655	0.8952	0.3056	-0.056
Mof_H 	H 	0.2677	0.8934	0.3349	0.043
Mof_C 	C 	0.2473	0.93	0.2874	-0.021
Mof_H 	H 	0.2371	0.9519	0.3043	0.03
Mof_C 	C 	0.1869	0.9855	0.2401	-0.087
Mof_H 	H 	0.1757	0.9745	0.2651	0.054
Mof_C 	C 	0.1672	0.0177	0.2198	0.029
Mof_H 	H 	0.1423	0.0292	0.2309	0.028
Mof_O 	O 	0.217	0.1032	0.1465	-0.201
Mof_O 	O 	0.3862	0.6664	0.2934	-0.237
Mof_O 	O 	0.6639	0.5509	0.5997	-0.415
Mof_C 	C 	0.6696	0.5412	0.4899	-0.007
Mof_H 	H 	0.6704	0.5696	0.4818	0.046
Mof_C 	C 	0.8152	0.2877	0.8604	-0.017
Mof_H 	H 	0.8161	0.2858	0.8898	0.045
Mof_C 	C 	0.795	0.3215	0.8425	-0.037
Mof_H 	H 	0.7719	0.3363	0.8603	0.031
Mof_C 	C 	0.798	0.3262	0.7995	0.011
Mof_C 	C 	0.814	0.297	0.7744	-0.058
Mof_H 	H 	0.8024	0.2968	0.7455	0.036
Mof_C 	C 	0.8342	0.2632	0.7923	0.009
Mof_H 	H 	0.8469	0.2463	0.7741	0.026
Mof_C 	C 	0.7589	0.4005	0.7195	-0.021
Mof_H 	H 	0.7566	0.4023	0.6901	0.03
Mof_C 	C 	0.777	0.3658	0.7377	-0.055
Mof_H 	H 	0.7872	0.3438	0.7207	0.039
Mof_C 	C 	0.7655	0.3952	0.8056	-0.056
Mof_H 	H 	0.7677	0.3934	0.8349	0.043
Mof_C 	C 	0.7473	0.43	0.7874	-0.021
Mof_H 	H 	0.7371	0.4519	0.8043	0.03
Mof_C 	C 	0.6869	0.4855	0.7401	-0.087
Mof_H 	H 	0.6757	0.4745	0.7651	0.054
Mof_C 	C 	0.6672	0.5177	0.7198	0.029
Mof_H 	H 	0.6423	0.5292	0.7309	0.028
Mof_O 	O 	0.717	0.6032	0.6465	-0.201
Mof_O 	O 	0.8862	0.1664	0.7934	-0.237
Mof_O 	O 	0.8361	0.9491	0.0997	-0.415
Mof_C 	C 	0.8304	0.9588	0.9899	-0.007
Mof_H 	H 	0.8296	0.9304	0.9818	0.046
Mof_C 	C 	0.6848	0.2123	0.3604	-0.017
Mof_H 	H 	0.6839	0.2142	0.3898	0.045
Mof_C 	C 	0.705	0.1785	0.3425	-0.037
Mof_H 	H 	0.7281	0.1637	0.3603	0.031
Mof_C 	C 	0.702	0.1738	0.2995	0.011
Mof_C 	C 	0.686	0.203	0.2744	-0.058
Mof_H 	H 	0.6976	0.2032	0.2455	0.036
Mof_C 	C 	0.6658	0.2368	0.2923	0.009
Mof_H 	H 	0.6531	0.2537	0.2741	0.026
Mof_C 	C 	0.7411	0.0995	0.2195	-0.021
Mof_H 	H 	0.7434	0.0977	0.1901	0.03
Mof_C 	C 	0.723	0.1342	0.2377	-0.055
Mof_H 	H 	0.7128	0.1562	0.2207	0.039
Mof_C 	C 	0.7345	0.1048	0.3056	-0.056
Mof_H 	H 	0.7323	0.1066	0.3349	0.043
Mof_C 	C 	0.7527	0.07	0.2874	-0.021
Mof_H 	H 	0.7629	0.0481	0.3043	0.03
Mof_C 	C 	0.8131	0.0145	0.2401	-0.087
Mof_H 	H 	0.8243	0.0255	0.2651	0.054
Mof_C 	C 	0.8328	0.9823	0.2198	0.029
Mof_H 	H 	0.8577	0.9708	0.2309	0.028
Mof_O 	O 	0.783	0.8968	0.1465	-0.201
Mof_O 	O 	0.6138	0.3336	0.2934	-0.237
Mof_O 	O 	0.3361	0.4491	0.5997	-0.415
Mof_C 	C 	0.3304	0.4588	0.4899	-0.007
Mof_H 	H 	0.3296	0.4304	0.4818	0.046
Mof_C 	C 	0.1848	0.7123	0.8604	-0.017
Mof_H 	H 	0.1839	0.7142	0.8898	0.045
Mof_C 	C 	0.205	0.6785	0.8425	-0.037
Mof_H 	H 	0.2281	0.6637	0.8603	0.031
Mof_C 	C 	0.202	0.6738	0.7995	0.011
Mof_C 	C 	0.186	0.703	0.7744	-0.058
Mof_H 	H 	0.1976	0.7032	0.7455	0.036
Mof_C 	C 	0.1658	0.7368	0.7923	0.009
Mof_H 	H 	0.1531	0.7537	0.7741	0.026
Mof_C 	C 	0.2411	0.5995	0.7195	-0.021
Mof_H 	H 	0.2434	0.5977	0.6901	0.03
Mof_C 	C 	0.223	0.6342	0.7377	-0.055
Mof_H 	H 	0.2128	0.6562	0.7207	0.039
Mof_C 	C 	0.2345	0.6048	0.8056	-0.056
Mof_H 	H 	0.2323	0.6066	0.8349	0.043
Mof_C 	C 	0.2527	0.57	0.7874	-0.021
Mof_H 	H 	0.2629	0.5481	0.8043	0.03
Mof_C 	C 	0.3131	0.5145	0.7401	-0.087
Mof_H 	H 	0.3243	0.5255	0.7651	0.054
Mof_C 	C 	0.3328	0.4823	0.7198	0.029
Mof_H 	H 	0.3577	0.4708	0.7309	0.028
Mof_O 	O 	0.283	0.3968	0.6465	-0.201
Mof_O 	O 	0.1138	0.8336	0.7934	-0.237
Mof_O 	O 	0.9003	0.8361	0.0509	-0.415
Mof_C 	C 	0.0101	0.8304	0.0412	-0.007
Mof_H 	H 	0.0182	0.8296	0.0696	0.046
Mof_C 	C 	0.6396	0.6848	0.7877	-0.017
Mof_H 	H 	0.6102	0.6839	0.7858	0.045
Mof_C 	C 	0.6575	0.705	0.8215	-0.037
Mof_H 	H 	0.6397	0.7281	0.8363	0.031
Mof_C 	C 	0.7005	0.702	0.8262	0.011
Mof_C 	C 	0.7256	0.686	0.797	-0.058
Mof_H 	H 	0.7545	0.6976	0.7968	0.036
Mof_C 	C 	0.7077	0.6658	0.7632	0.009
Mof_H 	H 	0.7259	0.6531	0.7463	0.026
Mof_C 	C 	0.7805	0.7411	0.9005	-0.021
Mof_H 	H 	0.8099	0.7434	0.9023	0.03
Mof_C 	C 	0.7623	0.723	0.8658	-0.055
Mof_H 	H 	0.7793	0.7128	0.8438	0.039
Mof_C 	C 	0.6944	0.7345	0.8952	-0.056
Mof_H 	H 	0.6651	0.7323	0.8934	0.043
Mof_C 	C 	0.7126	0.7527	0.93	-0.021
Mof_H 	H 	0.6957	0.7629	0.9519	0.03
Mof_C 	C 	0.7599	0.8131	0.9855	-0.087
Mof_H 	H 	0.7349	0.8243	0.9745	0.054
Mof_C 	C 	0.7802	0.8328	0.0177	0.029
Mof_H 	H 	0.7691	0.8577	0.0292	0.028
Mof_O 	O 	0.8535	0.783	0.1032	-0.201
Mof_O 	O 	0.7066	0.6138	0.6664	-0.237
Mof_O 	O 	0.4003	0.3361	0.5509	-0.415
Mof_C 	C 	0.5101	0.3304	0.5412	-0.007
Mof_H 	H 	0.5182	0.3296	0.5696	0.046
Mof_C 	C 	0.1396	0.1848	0.2877	-0.017
Mof_H 	H 	0.1102	0.1839	0.2858	0.045
Mof_C 	C 	0.1575	0.205	0.3215	-0.037
Mof_H 	H 	0.1397	0.2281	0.3363	0.031
Mof_C 	C 	0.2005	0.202	0.3262	0.011
Mof_C 	C 	0.2256	0.186	0.297	-0.058
Mof_H 	H 	0.2545	0.1976	0.2968	0.036
Mof_C 	C 	0.2077	0.1658	0.2632	0.009
Mof_H 	H 	0.2259	0.1531	0.2463	0.026
Mof_C 	C 	0.2805	0.2411	0.4005	-0.021
Mof_H 	H 	0.3099	0.2434	0.4023	0.03
Mof_C 	C 	0.2623	0.223	0.3658	-0.055
Mof_H 	H 	0.2793	0.2128	0.3438	0.039
Mof_C 	C 	0.1944	0.2345	0.3952	-0.056
Mof_H 	H 	0.1651	0.2323	0.3934	0.043
Mof_C 	C 	0.2126	0.2527	0.43	-0.021
Mof_H 	H 	0.1957	0.2629	0.4519	0.03
Mof_C 	C 	0.2599	0.3131	0.4855	-0.087
Mof_H 	H 	0.2349	0.3243	0.4745	0.054
Mof_C 	C 	0.2802	0.3328	0.5177	0.029
Mof_H 	H 	0.2691	0.3577	0.5292	0.028
Mof_O 	O 	0.3535	0.283	0.6032	-0.201
Mof_O 	O 	0.2066	0.1138	0.1664	-0.237
Mof_O 	O 	0.9003	0.1639	0.9491	-0.415
Mof_C 	C 	0.0101	0.1696	0.9588	-0.007
Mof_H 	H 	0.0182	0.1704	0.9304	0.046
Mof_C 	C 	0.6396	0.3152	0.2123	-0.017
Mof_H 	H 	0.6102	0.3161	0.2142	0.045
Mof_C 	C 	0.6575	0.295	0.1785	-0.037
Mof_H 	H 	0.6397	0.2719	0.1637	0.031
Mof_C 	C 	0.7005	0.298	0.1738	0.011
Mof_C 	C 	0.7256	0.314	0.203	-0.058
Mof_H 	H 	0.7545	0.3024	0.2032	0.036
Mof_C 	C 	0.7077	0.3342	0.2368	0.009
Mof_H 	H 	0.7259	0.3469	0.2537	0.026
Mof_C 	C 	0.7805	0.2589	0.0995	-0.021
Mof_H 	H 	0.8099	0.2566	0.0977	0.03
Mof_C 	C 	0.7623	0.277	0.1342	-0.055
Mof_H 	H 	0.7793	0.2872	0.1562	0.039
Mof_C 	C 	0.6944	0.2655	0.1048	-0.056
Mof_H 	H 	0.6651	0.2677	0.1066	0.043
Mof_C 	C 	0.7126	0.2473	0.07	-0.021
Mof_H 	H 	0.6957	0.2371	0.0481	0.03
Mof_C 	C 	0.7599	0.1869	0.0145	-0.087
Mof_H 	H 	0.7349	0.1757	0.0255	0.054
Mof_C 	C 	0.7802	0.1672	0.9823	0.029
Mof_H 	H 	0.7691	0.1423	0.9708	0.028
Mof_O 	O 	0.8535	0.217	0.8968	-0.201
Mof_O 	O 	0.7066	0.3862	0.3336	-0.237
Mof_O 	O 	0.4003	0.6639	0.4491	-0.415
Mof_C 	C 	0.5101	0.6696	0.4588	-0.007
Mof_H 	H 	0.5182	0.6704	0.4304	0.046
Mof_C 	C 	0.1396	0.8152	0.7123	-0.017
Mof_H 	H 	0.1102	0.8161	0.7142	0.045
Mof_C 	C 	0.1575	0.795	0.6785	-0.037
Mof_H 	H 	0.1397	0.7719	0.6637	0.031
Mof_C 	C 	0.2005	0.798	0.6738	0.011
Mof_C 	C 	0.2256	0.814	0.703	-0.058
Mof_H 	H 	0.2545	0.8024	0.7032	0.036
Mof_C 	C 	0.2077	0.8342	0.7368	0.009
Mof_H 	H 	0.2259	0.8469	0.7537	0.026
Mof_C 	C 	0.2805	0.7589	0.5995	-0.021
Mof_H 	H 	0.3099	0.7566	0.5977	0.03
Mof_C 	C 	0.2623	0.777	0.6342	-0.055
Mof_H 	H 	0.2793	0.7872	0.6562	0.039
Mof_C 	C 	0.1944	0.7655	0.6048	-0.056
Mof_H 	H 	0.1651	0.7677	0.6066	0.043
Mof_C 	C 	0.2126	0.7473	0.57	-0.021
Mof_H 	H 	0.1957	0.7371	0.5481	0.03
Mof_C 	C 	0.2599	0.6869	0.5145	-0.087
Mof_H 	H 	0.2349	0.6757	0.5255	0.054
Mof_C 	C 	0.2802	0.6672	0.4823	0.029
Mof_H 	H 	0.2691	0.6423	0.4708	0.028
Mof_O 	O 	0.3535	0.717	0.3968	-0.201
Mof_O 	O 	0.2066	0.8862	0.8336	-0.237
Mof_O 	O 	0.0997	0.1639	0.0509	-0.415
Mof_C 	C 	0.9899	0.1696	0.0412	-0.007
Mof_H 	H 	0.9818	0.1704	0.0696	0.046
Mof_C 	C 	0.3604	0.3152	0.7877	-0.017
Mof_H 	H 	0.3898	0.3161	0.7858	0.045
Mof_C 	C 	0.3425	0.295	0.8215	-0.037
Mof_H 	H 	0.3603	0.2719	0.8363	0.031
Mof_C 	C 	0.2995	0.298	0.8262	0.011
Mof_C 	C 	0.2744	0.314	0.797	-0.058
Mof_H 	H 	0.2455	0.3024	0.7968	0.036
Mof_C 	C 	0.2923	0.3342	0.7632	0.009
Mof_H 	H 	0.2741	0.3469	0.7463	0.026
Mof_C 	C 	0.2195	0.2589	0.9005	-0.021
Mof_H 	H 	0.1901	0.2566	0.9023	0.03
Mof_C 	C 	0.2377	0.277	0.8658	-0.055
Mof_H 	H 	0.2207	0.2872	0.8438	0.039
Mof_C 	C 	0.3056	0.2655	0.8952	-0.056
Mof_H 	H 	0.3349	0.2677	0.8934	0.043
Mof_C 	C 	0.2874	0.2473	0.93	-0.021
Mof_H 	H 	0.3043	0.2371	0.9519	0.03
Mof_C 	C 	0.2401	0.1869	0.9855	-0.087
Mof_H 	H 	0.2651	0.1757	0.9745	0.054
Mof_C 	C 	0.2198	0.1672	0.0177	0.029
Mof_H 	H 	0.2309	0.1423	0.0292	0.028
Mof_O 	O 	0.1465	0.217	0.1032	-0.201
Mof_O 	O 	0.2934	0.3862	0.6664	-0.237
Mof_O 	O 	0.5997	0.6639	0.5509	-0.415
Mof_C 	C 	0.4899	0.6696	0.5412	-0.007
Mof_H 	H 	0.4818	0.6704	0.5696	0.046
Mof_C 	C 	0.8604	0.8152	0.2877	-0.017
Mof_H 	H 	0.8898	0.8161	0.2858	0.045
Mof_C 	C 	0.8425	0.795	0.3215	-0.037
Mof_H 	H 	0.8603	0.7719	0.3363	0.031
Mof_C 	C 	0.7995	0.798	0.3262	0.011
Mof_C 	C 	0.7744	0.814	0.297	-0.058
Mof_H 	H 	0.7455	0.8024	0.2968	0.036
Mof_C 	C 	0.7923	0.8342	0.2632	0.009
Mof_H 	H 	0.7741	0.8469	0.2463	0.026
Mof_C 	C 	0.7195	0.7589	0.4005	-0.021
Mof_H 	H 	0.6901	0.7566	0.4023	0.03
Mof_C 	C 	0.7377	0.777	0.3658	-0.055
Mof_H 	H 	0.7207	0.7872	0.3438	0.039
Mof_C 	C 	0.8056	0.7655	0.3952	-0.056
Mof_H 	H 	0.8349	0.7677	0.3934	0.043
Mof_C 	C 	0.7874	0.7473	0.43	-0.021
Mof_H 	H 	0.8043	0.7371	0.4519	0.03
Mof_C 	C 	0.7401	0.6869	0.4855	-0.087
Mof_H 	H 	0.7651	0.6757	0.4745	0.054
Mof_C 	C 	0.7198	0.6672	0.5177	0.029
Mof_H 	H 	0.7309	0.6423	0.5292	0.028
Mof_O 	O 	0.6465	0.717	0.6032	-0.201
Mof_O 	O 	0.7934	0.8862	0.1664	-0.237
Mof_O 	O 	0.0997	0.8361	0.9491	-0.415
Mof_C 	C 	0.9899	0.8304	0.9588	-0.007
Mof_H 	H 	0.9818	0.8296	0.9304	0.046
Mof_C 	C 	0.3604	0.6848	0.2123	-0.017
Mof_H 	H 	0.3898	0.6839	0.2142	0.045
Mof_C 	C 	0.3425	0.705	0.1785	-0.037
Mof_H 	H 	0.3603	0.7281	0.1637	0.031
Mof_C 	C 	0.2995	0.702	0.1738	0.011
Mof_C 	C 	0.2744	0.686	0.203	-0.058
Mof_H 	H 	0.2455	0.6976	0.2032	0.036
Mof_C 	C 	0.2923	0.6658	0.2368	0.009
Mof_H 	H 	0.2741	0.6531	0.2537	0.026
Mof_C 	C 	0.2195	0.7411	0.0995	-0.021
Mof_H 	H 	0.1901	0.7434	0.0977	0.03
Mof_C 	C 	0.2377	0.723	0.1342	-0.055
Mof_H 	H 	0.2207	0.7128	0.1562	0.039
Mof_C 	C 	0.3056	0.7345	0.1048	-0.056
Mof_H 	H 	0.3349	0.7323	0.1066	0.043
Mof_C 	C 	0.2874	0.7527	0.07	-0.021
Mof_H 	H 	0.3043	0.7629	0.0481	0.03
Mof_C 	C 	0.2401	0.8131	0.0145	-0.087
Mof_H 	H 	0.2651	0.8243	0.0255	0.054
Mof_C 	C 	0.2198	0.8328	0.9823	0.029
Mof_H 	H 	0.2309	0.8577	0.9708	0.028
Mof_O 	O 	0.1465	0.783	0.8968	-0.201
Mof_O 	O 	0.2934	0.6138	0.3336	-0.237
Mof_O 	O 	0.5997	0.3361	0.4491	-0.415
Mof_C 	C 	0.4899	0.3304	0.4588	-0.007
Mof_H 	H 	0.4818	0.3296	0.4304	0.046
Mof_C 	C 	0.8604	0.1848	0.7123	-0.017
Mof_H 	H 	0.8898	0.1839	0.7142	0.045
Mof_C 	C 	0.8425	0.205	0.6785	-0.037
Mof_H 	H 	0.8603	0.2281	0.6637	0.031
Mof_C 	C 	0.7995	0.202	0.6738	0.011
Mof_C 	C 	0.7744	0.186	0.703	-0.058
Mof_H 	H 	0.7455	0.1976	0.7032	0.036
Mof_C 	C 	0.7923	0.1658	0.7368	0.009
Mof_H 	H 	0.7741	0.1531	0.7537	0.026
Mof_C 	C 	0.7195	0.2411	0.5995	-0.021
Mof_H 	H 	0.6901	0.2434	0.5977	0.03
Mof_C 	C 	0.7377	0.223	0.6342	-0.055
Mof_H 	H 	0.7207	0.2128	0.6562	0.039
Mof_C 	C 	0.8056	0.2345	0.6048	-0.056
Mof_H 	H 	0.8349	0.2323	0.6066	0.043
Mof_C 	C 	0.7874	0.2527	0.57	-0.021
Mof_H 	H 	0.8043	0.2629	0.5481	0.03
Mof_C 	C 	0.7401	0.3131	0.5145	-0.087
Mof_H 	H 	0.7651	0.3243	0.5255	0.054
Mof_C 	C 	0.7198	0.3328	0.4823	0.029
Mof_H 	H 	0.7309	0.3577	0.4708	0.028
Mof_O 	O 	0.6465	0.283	0.3968	-0.201
Mof_O 	O 	0.7934	0.1138	0.8336	-0.237
Mof_O 	O 	0.0509	0.9003	0.8361	-0.415
Mof_C 	C 	0.0412	0.0101	0.8304	-0.007
Mof_H 	H 	0.0696	0.0182	0.8296	0.046
Mof_C 	C 	0.7877	0.6396	0.6848	-0.017
Mof_H 	H 	0.7858	0.6102	0.6839	0.045
Mof_C 	C 	0.8215	0.6575	0.705	-0.037
Mof_H 	H 	0.8363	0.6397	0.7281	0.031
Mof_C 	C 	0.8262	0.7005	0.702	0.011
Mof_C 	C 	0.797	0.7256	0.686	-0.058
Mof_H 	H 	0.7968	0.7545	0.6976	0.036
Mof_C 	C 	0.7632	0.7077	0.6658	0.009
Mof_H 	H 	0.7463	0.7259	0.6531	0.026
Mof_C 	C 	0.9005	0.7805	0.7411	-0.021
Mof_H 	H 	0.9023	0.8099	0.7434	0.03
Mof_C 	C 	0.8658	0.7623	0.723	-0.055
Mof_H 	H 	0.8438	0.7793	0.7128	0.039
Mof_C 	C 	0.8952	0.6944	0.7345	-0.056
Mof_H 	H 	0.8934	0.6651	0.7323	0.043
Mof_C 	C 	0.93	0.7126	0.7527	-0.021
Mof_H 	H 	0.9519	0.6957	0.7629	0.03
Mof_C 	C 	0.9855	0.7599	0.8131	-0.087
Mof_H 	H 	0.9745	0.7349	0.8243	0.054
Mof_C 	C 	0.0177	0.7802	0.8328	0.029
Mof_H 	H 	0.0292	0.7691	0.8577	0.028
Mof_O 	O 	0.1032	0.8535	0.783	-0.201
Mof_O 	O 	0.6664	0.7066	0.6138	-0.237
Mof_O 	O 	0.5509	0.4003	0.3361	-0.415
Mof_C 	C 	0.5412	0.5101	0.3304	-0.007
Mof_H 	H 	0.5696	0.5182	0.3296	0.046
Mof_C 	C 	0.2877	0.1396	0.1848	-0.017
Mof_H 	H 	0.2858	0.1102	0.1839	0.045
Mof_C 	C 	0.3215	0.1575	0.205	-0.037
Mof_H 	H 	0.3363	0.1397	0.2281	0.031
Mof_C 	C 	0.3262	0.2005	0.202	0.011
Mof_C 	C 	0.297	0.2256	0.186	-0.058
Mof_H 	H 	0.2968	0.2545	0.1976	0.036
Mof_C 	C 	0.2632	0.2077	0.1658	0.009
Mof_H 	H 	0.2463	0.2259	0.1531	0.026
Mof_C 	C 	0.4005	0.2805	0.2411	-0.021
Mof_H 	H 	0.4023	0.3099	0.2434	0.03
Mof_C 	C 	0.3658	0.2623	0.223	-0.055
Mof_H 	H 	0.3438	0.2793	0.2128	0.039
Mof_C 	C 	0.3952	0.1944	0.2345	-0.056
Mof_H 	H 	0.3934	0.1651	0.2323	0.043
Mof_C 	C 	0.43	0.2126	0.2527	-0.021
Mof_H 	H 	0.4519	0.1957	0.2629	0.03
Mof_C 	C 	0.4855	0.2599	0.3131	-0.087
Mof_H 	H 	0.4745	0.2349	0.3243	0.054
Mof_C 	C 	0.5177	0.2802	0.3328	0.029
Mof_H 	H 	0.5292	0.2691	0.3577	0.028
Mof_O 	O 	0.6032	0.3535	0.283	-0.201
Mof_O 	O 	0.1664	0.2066	0.1138	-0.237
Mof_O 	O 	0.9491	0.9003	0.1639	-0.415
Mof_C 	C 	0.9588	0.0101	0.1696	-0.007
Mof_H 	H 	0.9304	0.0182	0.1704	0.046
Mof_C 	C 	0.2123	0.6396	0.3152	-0.017
Mof_H 	H 	0.2142	0.6102	0.3161	0.045
Mof_C 	C 	0.1785	0.6575	0.295	-0.037
Mof_H 	H 	0.1637	0.6397	0.2719	0.031
Mof_C 	C 	0.1738	0.7005	0.298	0.011
Mof_C 	C 	0.203	0.7256	0.314	-0.058
Mof_H 	H 	0.2032	0.7545	0.3024	0.036
Mof_C 	C 	0.2368	0.7077	0.3342	0.009
Mof_H 	H 	0.2537	0.7259	0.3469	0.026
Mof_C 	C 	0.0995	0.7805	0.2589	-0.021
Mof_H 	H 	0.0977	0.8099	0.2566	0.03
Mof_C 	C 	0.1342	0.7623	0.277	-0.055
Mof_H 	H 	0.1562	0.7793	0.2872	0.039
Mof_C 	C 	0.1048	0.6944	0.2655	-0.056
Mof_H 	H 	0.1066	0.6651	0.2677	0.043
Mof_C 	C 	0.07	0.7126	0.2473	-0.021
Mof_H 	H 	0.0481	0.6957	0.2371	0.03
Mof_C 	C 	0.0145	0.7599	0.1869	-0.087
Mof_H 	H 	0.0255	0.7349	0.1757	0.054
Mof_C 	C 	0.9823	0.7802	0.1672	0.029
Mof_H 	H 	0.9708	0.7691	0.1423	0.028
Mof_O 	O 	0.8968	0.8535	0.217	-0.201
Mof_O 	O 	0.3336	0.7066	0.3862	-0.237
Mof_O 	O 	0.4491	0.4003	0.6639	-0.415
Mof_C 	C 	0.4588	0.5101	0.6696	-0.007
Mof_H 	H 	0.4304	0.5182	0.6704	0.046
Mof_C 	C 	0.7123	0.1396	0.8152	-0.017
Mof_H 	H 	0.7142	0.1102	0.8161	0.045
Mof_C 	C 	0.6785	0.1575	0.795	-0.037
Mof_H 	H 	0.6637	0.1397	0.7719	0.031
Mof_C 	C 	0.6738	0.2005	0.798	0.011
Mof_C 	C 	0.703	0.2256	0.814	-0.058
Mof_H 	H 	0.7032	0.2545	0.8024	0.036
Mof_C 	C 	0.7368	0.2077	0.8342	0.009
Mof_H 	H 	0.7537	0.2259	0.8469	0.026
Mof_C 	C 	0.5995	0.2805	0.7589	-0.021
Mof_H 	H 	0.5977	0.3099	0.7566	0.03
Mof_C 	C 	0.6342	0.2623	0.777	-0.055
Mof_H 	H 	0.6562	0.2793	0.7872	0.039
Mof_C 	C 	0.6048	0.1944	0.7655	-0.056
Mof_H 	H 	0.6066	0.1651	0.7677	0.043
Mof_C 	C 	0.57	0.2126	0.7473	-0.021
Mof_H 	H 	0.5481	0.1957	0.7371	0.03
Mof_C 	C 	0.5145	0.2599	0.6869	-0.087
Mof_H 	H 	0.5255	0.2349	0.6757	0.054
Mof_C 	C 	0.4823	0.2802	0.6672	0.029
Mof_H 	H 	0.4708	0.2691	0.6423	0.028
Mof_O 	O 	0.3968	0.3535	0.717	-0.201
Mof_O 	O 	0.8336	0.2066	0.8862	-0.237
Mof_O 	O 	0.0509	0.0997	0.1639	-0.415
Mof_C 	C 	0.0412	0.9899	0.1696	-0.007
Mof_H 	H 	0.0696	0.9818	0.1704	0.046
Mof_C 	C 	0.7877	0.3604	0.3152	-0.017
Mof_H 	H 	0.7858	0.3898	0.3161	0.045
Mof_C 	C 	0.8215	0.3425	0.295	-0.037
Mof_H 	H 	0.8363	0.3603	0.2719	0.031
Mof_C 	C 	0.8262	0.2995	0.298	0.011
Mof_C 	C 	0.797	0.2744	0.314	-0.058
Mof_H 	H 	0.7968	0.2455	0.3024	0.036
Mof_C 	C 	0.7632	0.2923	0.3342	0.009
Mof_H 	H 	0.7463	0.2741	0.3469	0.026
Mof_C 	C 	0.9005	0.2195	0.2589	-0.021
Mof_H 	H 	0.9023	0.1901	0.2566	0.03
Mof_C 	C 	0.8658	0.2377	0.277	-0.055
Mof_H 	H 	0.8438	0.2207	0.2872	0.039
Mof_C 	C 	0.8952	0.3056	0.2655	-0.056
Mof_H 	H 	0.8934	0.3349	0.2677	0.043
Mof_C 	C 	0.93	0.2874	0.2473	-0.021
Mof_H 	H 	0.9519	0.3043	0.2371	0.03
Mof_C 	C 	0.9855	0.2401	0.1869	-0.087
Mof_H 	H 	0.9745	0.2651	0.1757	0.054
Mof_C 	C 	0.0177	0.2198	0.1672	0.029
Mof_H 	H 	0.0292	0.2309	0.1423	0.028
Mof_O 	O 	0.1032	0.1465	0.217	-0.201
Mof_O 	O 	0.6664	0.2934	0.3862	-0.237
Mof_O 	O 	0.5509	0.5997	0.6639	-0.415
Mof_C 	C 	0.5412	0.4899	0.6696	-0.007
Mof_H 	H 	0.5696	0.4818	0.6704	0.046
Mof_C 	C 	0.2877	0.8604	0.8152	-0.017
Mof_H 	H 	0.2858	0.8898	0.8161	0.045
Mof_C 	C 	0.3215	0.8425	0.795	-0.037
Mof_H 	H 	0.3363	0.8603	0.7719	0.031
Mof_C 	C 	0.3262	0.7995	0.798	0.011
Mof_C 	C 	0.297	0.7744	0.814	-0.058
Mof_H 	H 	0.2968	0.7455	0.8024	0.036
Mof_C 	C 	0.2632	0.7923	0.8342	0.009
Mof_H 	H 	0.2463	0.7741	0.8469	0.026
Mof_C 	C 	0.4005	0.7195	0.7589	-0.021
Mof_H 	H 	0.4023	0.6901	0.7566	0.03
Mof_C 	C 	0.3658	0.7377	0.777	-0.055
Mof_H 	H 	0.3438	0.7207	0.7872	0.039
Mof_C 	C 	0.3952	0.8056	0.7655	-0.056
Mof_H 	H 	0.3934	0.8349	0.7677	0.043
Mof_C 	C 	0.43	0.7874	0.7473	-0.021
Mof_H 	H 	0.4519	0.8043	0.7371	0.03
Mof_C 	C 	0.4855	0.7401	0.6869	-0.087
Mof_H 	H 	0.4745	0.7651	0.6757	0.054
Mof_C 	C 	0.5177	0.7198	0.6672	0.029
Mof_H 	H 	0.5292	0.7309	0.6423	0.028
Mof_O 	O 	0.6032	0.6465	0.717	-0.201
Mof_O 	O 	0.1664	0.7934	0.8862	-0.237
Mof_O 	O 	0.9491	0.0997	0.8361	-0.415
Mof_C 	C 	0.9588	0.9899	0.8304	-0.007
Mof_H 	H 	0.9304	0.9818	0.8296	0.046
Mof_C 	C 	0.2123	0.3604	0.6848	-0.017
Mof_H 	H 	0.2142	0.3898	0.6839	0.045
Mof_C 	C 	0.1785	0.3425	0.705	-0.037
Mof_H 	H 	0.1637	0.3603	0.7281	0.031
Mof_C 	C 	0.1738	0.2995	0.702	0.011
Mof_C 	C 	0.203	0.2744	0.686	-0.058
Mof_H 	H 	0.2032	0.2455	0.6976	0.036
Mof_C 	C 	0.2368	0.2923	0.6658	0.009
Mof_H 	H 	0.2537	0.2741	0.6531	0.026
Mof_C 	C 	0.0995	0.2195	0.7411	-0.021
Mof_H 	H 	0.0977	0.1901	0.7434	0.03
Mof_C 	C 	0.1342	0.2377	0.723	-0.055
Mof_H 	H 	0.1562	0.2207	0.7128	0.039
Mof_C 	C 	0.1048	0.3056	0.7345	-0.056
Mof_H 	H 	0.1066	0.3349	0.7323	0.043
Mof_C 	C 	0.07	0.2874	0.7527	-0.021
Mof_H 	H 	0.0481	0.3043	0.7629	0.03
Mof_C 	C 	0.0145	0.2401	0.8131	-0.087
Mof_H 	H 	0.0255	0.2651	0.8243	0.054
Mof_C 	C 	0.9823	0.2198	0.8328	0.029
Mof_H 	H 	0.9708	0.2309	0.8577	0.028
Mof_O 	O 	0.8968	0.1465	0.783	-0.201
Mof_O 	O 	0.3336	0.2934	0.6138	-0.237
Mof_O 	O 	0.4491	0.5997	0.3361	-0.415
Mof_C 	C 	0.4588	0.4899	0.3304	-0.007
Mof_H 	H 	0.4304	0.4818	0.3296	0.046
Mof_C 	C 	0.7123	0.8604	0.1848	-0.017
Mof_H 	H 	0.7142	0.8898	0.1839	0.045
Mof_C 	C 	0.6785	0.8425	0.205	-0.037
Mof_H 	H 	0.6637	0.8603	0.2281	0.031
Mof_C 	C 	0.6738	0.7995	0.202	0.011
Mof_C 	C 	0.703	0.7744	0.186	-0.058
Mof_H 	H 	0.7032	0.7455	0.1976	0.036
Mof_C 	C 	0.7368	0.7923	0.1658	0.009
Mof_H 	H 	0.7537	0.7741	0.1531	0.026
Mof_C 	C 	0.5995	0.7195	0.2411	-0.021
Mof_H 	H 	0.5977	0.6901	0.2434	0.03
Mof_C 	C 	0.6342	0.7377	0.223	-0.055
Mof_H 	H 	0.6562	0.7207	0.2128	0.039
Mof_C 	C 	0.6048	0.8056	0.2345	-0.056
Mof_H 	H 	0.6066	0.8349	0.2323	0.043
Mof_C 	C 	0.57	0.7874	0.2527	-0.021
Mof_H 	H 	0.5481	0.8043	0.2629	0.03
Mof_C 	C 	0.5145	0.7401	0.3131	-0.087
Mof_H 	H 	0.5255	0.7651	0.3243	0.054
Mof_C 	C 	0.4823	0.7198	0.3328	0.029
Mof_H 	H 	0.4708	0.7309	0.3577	0.028
Mof_O 	O 	0.3968	0.6465	0.283	-0.201
Mof_O 	O 	0.8336	0.7934	0.1138	-0.237
Mof_O 	O 	0.0509	0.8361	0.9003	-0.415
Mof_C 	C 	0.0412	0.8304	0.0101	-0.007
Mof_H 	H 	0.0696	0.8296	0.0182	0.046
Mof_C 	C 	0.7877	0.6848	0.6396	-0.017
Mof_H 	H 	0.7858	0.6839	0.6102	0.045
Mof_C 	C 	0.8215	0.705	0.6575	-0.037
Mof_H 	H 	0.8363	0.7281	0.6397	0.031
Mof_C 	C 	0.8262	0.702	0.7005	0.011
Mof_C 	C 	0.797	0.686	0.7256	-0.058
Mof_H 	H 	0.7968	0.6976	0.7545	0.036
Mof_C 	C 	0.7632	0.6658	0.7077	0.009
Mof_H 	H 	0.7463	0.6531	0.7259	0.026
Mof_C 	C 	0.9005	0.7411	0.7805	-0.021
Mof_H 	H 	0.9023	0.7434	0.8099	0.03
Mof_C 	C 	0.8658	0.723	0.7623	-0.055
Mof_H 	H 	0.8438	0.7128	0.7793	0.039
Mof_C 	C 	0.8952	0.7345	0.6944	-0.056
Mof_H 	H 	0.8934	0.7323	0.6651	0.043
Mof_C 	C 	0.93	0.7527	0.7126	-0.021
Mof_H 	H 	0.9519	0.7629	0.6957	0.03
Mof_C 	C 	0.9855	0.8131	0.7599	-0.087
Mof_H 	H 	0.9745	0.8243	0.7349	0.054
Mof_C 	C 	0.0177	0.8328	0.7802	0.029
Mof_H 	H 	0.0292	0.8577	0.7691	0.028
Mof_O 	O 	0.1032	0.783	0.8535	-0.201
Mof_O 	O 	0.6664	0.6138	0.7066	-0.237
Mof_O 	O 	0.5509	0.3361	0.4003	-0.415
Mof_C 	C 	0.5412	0.3304	0.5101	-0.007
Mof_H 	H 	0.5696	0.3296	0.5182	0.046
Mof_C 	C 	0.2877	0.1848	0.1396	-0.017
Mof_H 	H 	0.2858	0.1839	0.1102	0.045
Mof_C 	C 	0.3215	0.205	0.1575	-0.037
Mof_H 	H 	0.3363	0.2281	0.1397	0.031
Mof_C 	C 	0.3262	0.202	0.2005	0.011
Mof_C 	C 	0.297	0.186	0.2256	-0.058
Mof_H 	H 	0.2968	0.1976	0.2545	0.036
Mof_C 	C 	0.2632	0.1658	0.2077	0.009
Mof_H 	H 	0.2463	0.1531	0.2259	0.026
Mof_C 	C 	0.4005	0.2411	0.2805	-0.021
Mof_H 	H 	0.4023	0.2434	0.3099	0.03
Mof_C 	C 	0.3658	0.223	0.2623	-0.055
Mof_H 	H 	0.3438	0.2128	0.2793	0.039
Mof_C 	C 	0.3952	0.2345	0.1944	-0.056
Mof_H 	H 	0.3934	0.2323	0.1651	0.043
Mof_C 	C 	0.43	0.2527	0.2126	-0.021
Mof_H 	H 	0.4519	0.2629	0.1957	0.03
Mof_C 	C 	0.4855	0.3131	0.2599	-0.087
Mof_H 	H 	0.4745	0.3243	0.2349	0.054
Mof_C 	C 	0.5177	0.3328	0.2802	0.029
Mof_H 	H 	0.5292	0.3577	0.2691	0.028
Mof_O 	O 	0.6032	0.283	0.3535	-0.201
Mof_O 	O 	0.1664	0.1138	0.2066	-0.237
Mof_O 	O 	0.9491	0.1639	0.9003	-0.415
Mof_C 	C 	0.9588	0.1696	0.0101	-0.007
Mof_H 	H 	0.9304	0.1704	0.0182	0.046
Mof_C 	C 	0.2123	0.3152	0.6396	-0.017
Mof_H 	H 	0.2142	0.3161	0.6102	0.045
Mof_C 	C 	0.1785	0.295	0.6575	-0.037
Mof_H 	H 	0.1637	0.2719	0.6397	0.031
Mof_C 	C 	0.1738	0.298	0.7005	0.011
Mof_C 	C 	0.203	0.314	0.7256	-0.058
Mof_H 	H 	0.2032	0.3024	0.7545	0.036
Mof_C 	C 	0.2368	0.3342	0.7077	0.009
Mof_H 	H 	0.2537	0.3469	0.7259	0.026
Mof_C 	C 	0.0995	0.2589	0.7805	-0.021
Mof_H 	H 	0.0977	0.2566	0.8099	0.03
Mof_C 	C 	0.1342	0.277	0.7623	-0.055
Mof_H 	H 	0.1562	0.2872	0.7793	0.039
Mof_C 	C 	0.1048	0.2655	0.6944	-0.056
Mof_H 	H 	0.1066	0.2677	0.6651	0.043
Mof_C 	C 	0.07	0.2473	0.7126	-0.021
Mof_H 	H 	0.0481	0.2371	0.6957	0.03
Mof_C 	C 	0.0145	0.1869	0.7599	-0.087
Mof_H 	H 	0.0255	0.1757	0.7349	0.054
Mof_C 	C 	0.9823	0.1672	0.7802	0.029
Mof_H 	H 	0.9708	0.1423	0.7691	0.028
Mof_O 	O 	0.8968	0.217	0.8535	-0.201
Mof_O 	O 	0.3336	0.3862	0.7066	-0.237
Mof_O 	O 	0.4491	0.6639	0.4003	-0.415
Mof_C 	C 	0.4588	0.6696	0.5101	-0.007
Mof_H 	H 	0.4304	0.6704	0.5182	0.046
Mof_C 	C 	0.7123	0.8152	0.1396	-0.017
Mof_H 	H 	0.7142	0.8161	0.1102	0.045
Mof_C 	C 	0.6785	0.795	0.1575	-0.037
Mof_H 	H 	0.6637	0.7719	0.1397	0.031
Mof_C 	C 	0.6738	0.798	0.2005	0.011
Mof_C 	C 	0.703	0.814	0.2256	-0.058
Mof_H 	H 	0.7032	0.8024	0.2545	0.036
Mof_C 	C 	0.7368	0.8342	0.2077	0.009
Mof_H 	H 	0.7537	0.8469	0.2259	0.026
Mof_C 	C 	0.5995	0.7589	0.2805	-0.021
Mof_H 	H 	0.5977	0.7566	0.3099	0.03
Mof_C 	C 	0.6342	0.777	0.2623	-0.055
Mof_H 	H 	0.6562	0.7872	0.2793	0.039
Mof_C 	C 	0.6048	0.7655	0.1944	-0.056
Mof_H 	H 	0.6066	0.7677	0.1651	0.043
Mof_C 	C 	0.57	0.7473	0.2126	-0.021
Mof_H 	H 	0.5481	0.7371	0.1957	0.03
Mof_C 	C 	0.5145	0.6869	0.2599	-0.087
Mof_H 	H 	0.5255	0.6757	0.2349	0.054
Mof_C 	C 	0.4823	0.6672	0.2802	0.029
Mof_H 	H 	0.4708	0.6423	0.2691	0.028
Mof_O 	O 	0.3968	0.717	0.3535	-0.201
Mof_O 	O 	0.8336	0.8862	0.2066	-0.237
Mof_O 	O 	0.0509	0.1639	0.0997	-0.415
Mof_C 	C 	0.0412	0.1696	0.9899	-0.007
Mof_H 	H 	0.0696	0.1704	0.9818	0.046
Mof_C 	C 	0.7877	0.3152	0.3604	-0.017
Mof_H 	H 	0.7858	0.3161	0.3898	0.045
Mof_C 	C 	0.8215	0.295	0.3425	-0.037
Mof_H 	H 	0.8363	0.2719	0.3603	0.031
Mof_C 	C 	0.8262	0.298	0.2995	0.011
Mof_C 	C 	0.797	0.314	0.2744	-0.058
Mof_H 	H 	0.7968	0.3024	0.2455	0.036
Mof_C 	C 	0.7632	0.3342	0.2923	0.009
Mof_H 	H 	0.7463	0.3469	0.2741	0.026
Mof_C 	C 	0.9005	0.2589	0.2195	-0.021
Mof_H 	H 	0.9023	0.2566	0.1901	0.03
Mof_C 	C 	0.8658	0.277	0.2377	-0.055
Mof_H 	H 	0.8438	0.2872	0.2207	0.039
Mof_C 	C 	0.8952	0.2655	0.3056	-0.056
Mof_H 	H 	0.8934	0.2677	0.3349	0.043
Mof_C 	C 	0.93	0.2473	0.2874	-0.021
Mof_H 	H 	0.9519	0.2371	0.3043	0.03
Mof_C 	C 	0.9855	0.1869	0.2401	-0.087
Mof_H 	H 	0.9745	0.1757	0.2651	0.054
Mof_C 	C 	0.0177	0.1672	0.2198	0.029
Mof_H 	H 	0.0292	0.1423	0.2309	0.028
Mof_O 	O 	0.1032	0.217	0.1465	-0.201
Mof_O 	O 	0.6664	0.3862	0.2934	-0.237
Mof_O 	O 	0.5509	0.6639	0.5997	-0.415
Mof_C 	C 	0.5412	0.6696	0.4899	-0.007
Mof_H 	H 	0.5696	0.6704	0.4818	0.046
Mof_C 	C 	0.2877	0.8152	0.8604	-0.017
Mof_H 	H 	0.2858	0.8161	0.8898	0.045
Mof_C 	C 	0.3215	0.795	0.8425	-0.037
Mof_H 	H 	0.3363	0.7719	0.8603	0.031
Mof_C 	C 	0.3262	0.798	0.7995	0.011
Mof_C 	C 	0.297	0.814	0.7744	-0.058
Mof_H 	H 	0.2968	0.8024	0.7455	0.036
Mof_C 	C 	0.2632	0.8342	0.7923	0.009
Mof_H 	H 	0.2463	0.8469	0.7741	0.026
Mof_C 	C 	0.4005	0.7589	0.7195	-0.021
Mof_H 	H 	0.4023	0.7566	0.6901	0.03
Mof_C 	C 	0.3658	0.777	0.7377	-0.055
Mof_H 	H 	0.3438	0.7872	0.7207	0.039
Mof_C 	C 	0.3952	0.7655	0.8056	-0.056
Mof_H 	H 	0.3934	0.7677	0.8349	0.043
Mof_C 	C 	0.43	0.7473	0.7874	-0.021
Mof_H 	H 	0.4519	0.7371	0.8043	0.03
Mof_C 	C 	0.4855	0.6869	0.7401	-0.087
Mof_H 	H 	0.4745	0.6757	0.7651	0.054
Mof_C 	C 	0.5177	0.6672	0.7198	0.029
Mof_H 	H 	0.5292	0.6423	0.7309	0.028
Mof_O 	O 	0.6032	0.717	0.6465	-0.201
Mof_O 	O 	0.1664	0.8862	0.7934	-0.237
Mof_O 	O 	0.9491	0.8361	0.0997	-0.415
Mof_C 	C 	0.9588	0.8304	0.9899	-0.007
Mof_H 	H 	0.9304	0.8296	0.9818	0.046
Mof_C 	C 	0.2123	0.6848	0.3604	-0.017
Mof_H 	H 	0.2142	0.6839	0.3898	0.045
Mof_C 	C 	0.1785	0.705	0.3425	-0.037
Mof_H 	H 	0.1637	0.7281	0.3603	0.031
Mof_C 	C 	0.1738	0.702	0.2995	0.011
Mof_C 	C 	0.203	0.686	0.2744	-0.058
Mof_H 	H 	0.2032	0.6976	0.2455	0.036
Mof_C 	C 	0.2368	0.6658	0.2923	0.009
Mof_H 	H 	0.2537	0.6531	0.2741	0.026
Mof_C 	C 	0.0995	0.7411	0.2195	-0.021
Mof_H 	H 	0.0977	0.7434	0.1901	0.03
Mof_C 	C 	0.1342	0.723	0.2377	-0.055
Mof_H 	H 	0.1562	0.7128	0.2207	0.039
Mof_C 	C 	0.1048	0.7345	0.3056	-0.056
Mof_H 	H 	0.1066	0.7323	0.3349	0.043
Mof_C 	C 	0.07	0.7527	0.2874	-0.021
Mof_H 	H 	0.0481	0.7629	0.3043	0.03
Mof_C 	C 	0.0145	0.8131	0.2401	-0.087
Mof_H 	H 	0.0255	0.8243	0.2651	0.054
Mof_C 	C 	0.9823	0.8328	0.2198	0.029
Mof_H 	H 	0.9708	0.8577	0.2309	0.028
Mof_O 	O 	0.8968	0.783	0.1465	-0.201
Mof_O 	O 	0.3336	0.6138	0.2934	-0.237
Mof_O 	O 	0.4491	0.3361	0.5997	-0.415
Mof_C 	C 	0.4588	0.3304	0.4899	-0.007
Mof_H 	H 	0.4304	0.3296	0.4818	0.046
Mof_C 	C 	0.7123	0.1848	0.8604	-0.017
Mof_H 	H 	0.7142	0.1839	0.8898	0.045
Mof_C 	C 	0.6785	0.205	0.8425	-0.037
Mof_H 	H 	0.6637	0.2281	0.8603	0.031
Mof_C 	C 	0.6738	0.202	0.7995	0.011
Mof_C 	C 	0.703	0.186	0.7744	-0.058
Mof_H 	H 	0.7032	0.1976	0.7455	0.036
Mof_C 	C 	0.7368	0.1658	0.7923	0.009
Mof_H 	H 	0.7537	0.1531	0.7741	0.026
Mof_C 	C 	0.5995	0.2411	0.7195	-0.021
Mof_H 	H 	0.5977	0.2434	0.6901	0.03
Mof_C 	C 	0.6342	0.223	0.7377	-0.055
Mof_H 	H 	0.6562	0.2128	0.7207	0.039
Mof_C 	C 	0.6048	0.2345	0.8056	-0.056
Mof_H 	H 	0.6066	0.2323	0.8349	0.043
Mof_C 	C 	0.57	0.2527	0.7874	-0.021
Mof_H 	H 	0.5481	0.2629	0.8043	0.03
Mof_C 	C 	0.5145	0.3131	0.7401	-0.087
Mof_H 	H 	0.5255	0.3243	0.7651	0.054
Mof_C 	C 	0.4823	0.3328	0.7198	0.029
Mof_H 	H 	0.4708	0.3577	0.7309	0.028
Mof_O 	O 	0.3968	0.283	0.6465	-0.201
Mof_O 	O 	0.8336	0.1138	0.7934	-0.237
Mof_O 	O 	0.8361	0.9003	0.0509	-0.415
Mof_C 	C 	0.8304	0.0101	0.0412	-0.007
Mof_H 	H 	0.8296	0.0182	0.0696	0.046
Mof_C 	C 	0.6848	0.6396	0.7877	-0.017
Mof_H 	H 	0.6839	0.6102	0.7858	0.045
Mof_C 	C 	0.705	0.6575	0.8215	-0.037
Mof_H 	H 	0.7281	0.6397	0.8363	0.031
Mof_C 	C 	0.702	0.7005	0.8262	0.011
Mof_C 	C 	0.686	0.7256	0.797	-0.058
Mof_H 	H 	0.6976	0.7545	0.7968	0.036
Mof_C 	C 	0.6658	0.7077	0.7632	0.009
Mof_H 	H 	0.6531	0.7259	0.7463	0.026
Mof_C 	C 	0.7411	0.7805	0.9005	-0.021
Mof_H 	H 	0.7434	0.8099	0.9023	0.03
Mof_C 	C 	0.723	0.7623	0.8658	-0.055
Mof_H 	H 	0.7128	0.7793	0.8438	0.039
Mof_C 	C 	0.7345	0.6944	0.8952	-0.056
Mof_H 	H 	0.7323	0.6651	0.8934	0.043
Mof_C 	C 	0.7527	0.7126	0.93	-0.021
Mof_H 	H 	0.7629	0.6957	0.9519	0.03
Mof_C 	C 	0.8131	0.7599	0.9855	-0.087
Mof_H 	H 	0.8243	0.7349	0.9745	0.054
Mof_C 	C 	0.8328	0.7802	0.0177	0.029
Mof_H 	H 	0.8577	0.7691	0.0292	0.028
Mof_O 	O 	0.783	0.8535	0.1032	-0.201
Mof_O 	O 	0.6138	0.7066	0.6664	-0.237
Mof_O 	O 	0.3361	0.4003	0.5509	-0.415
Mof_C 	C 	0.3304	0.5101	0.5412	-0.007
Mof_H 	H 	0.3296	0.5182	0.5696	0.046
Mof_C 	C 	0.1848	0.1396	0.2877	-0.017
Mof_H 	H 	0.1839	0.1102	0.2858	0.045
Mof_C 	C 	0.205	0.1575	0.3215	-0.037
Mof_H 	H 	0.2281	0.1397	0.3363	0.031
Mof_C 	C 	0.202	0.2005	0.3262	0.011
Mof_C 	C 	0.186	0.2256	0.297	-0.058
Mof_H 	H 	0.1976	0.2545	0.2968	0.036
Mof_C 	C 	0.1658	0.2077	0.2632	0.009
Mof_H 	H 	0.1531	0.2259	0.2463	0.026
Mof_C 	C 	0.2411	0.2805	0.4005	-0.021
Mof_H 	H 	0.2434	0.3099	0.4023	0.03
Mof_C 	C 	0.223	0.2623	0.3658	-0.055
Mof_H 	H 	0.2128	0.2793	0.3438	0.039
Mof_C 	C 	0.2345	0.1944	0.3952	-0.056
Mof_H 	H 	0.2323	0.1651	0.3934	0.043
Mof_C 	C 	0.2527	0.2126	0.43	-0.021
Mof_H 	H 	0.2629	0.1957	0.4519	0.03
Mof_C 	C 	0.3131	0.2599	0.4855	-0.087
Mof_H 	H 	0.3243	0.2349	0.4745	0.054
Mof_C 	C 	0.3328	0.2802	0.5177	0.029
Mof_H 	H 	0.3577	0.2691	0.5292	0.028
Mof_O 	O 	0.283	0.3535	0.6032	-0.201
Mof_O 	O 	0.1138	0.2066	0.1664	-0.237
Mof_O 	O 	0.1639	0.9003	0.9491	-0.415
Mof_C 	C 	0.1696	0.0101	0.9588	-0.007
Mof_H 	H 	0.1704	0.0182	0.9304	0.046
Mof_C 	C 	0.3152	0.6396	0.2123	-0.017
Mof_H 	H 	0.3161	0.6102	0.2142	0.045
Mof_C 	C 	0.295	0.6575	0.1785	-0.037
Mof_H 	H 	0.2719	0.6397	0.1637	0.031
Mof_C 	C 	0.298	0.7005	0.1738	0.011
Mof_C 	C 	0.314	0.7256	0.203	-0.058
Mof_H 	H 	0.3024	0.7545	0.2032	0.036
Mof_C 	C 	0.3342	0.7077	0.2368	0.009
Mof_H 	H 	0.3469	0.7259	0.2537	0.026
Mof_C 	C 	0.2589	0.7805	0.0995	-0.021
Mof_H 	H 	0.2566	0.8099	0.0977	0.03
Mof_C 	C 	0.277	0.7623	0.1342	-0.055
Mof_H 	H 	0.2872	0.7793	0.1562	0.039
Mof_C 	C 	0.2655	0.6944	0.1048	-0.056
Mof_H 	H 	0.2677	0.6651	0.1066	0.043
Mof_C 	C 	0.2473	0.7126	0.07	-0.021
Mof_H 	H 	0.2371	0.6957	0.0481	0.03
Mof_C 	C 	0.1869	0.7599	0.0145	-0.087
Mof_H 	H 	0.1757	0.7349	0.0255	0.054
Mof_C 	C 	0.1672	0.7802	0.9823	0.029
Mof_H 	H 	0.1423	0.7691	0.9708	0.028
Mof_O 	O 	0.217	0.8535	0.8968	-0.201
Mof_O 	O 	0.3862	0.7066	0.3336	-0.237
Mof_O 	O 	0.6639	0.4003	0.4491	-0.415
Mof_C 	C 	0.6696	0.5101	0.4588	-0.007
Mof_H 	H 	0.6704	0.5182	0.4304	0.046
Mof_C 	C 	0.8152	0.1396	0.7123	-0.017
Mof_H 	H 	0.8161	0.1102	0.7142	0.045
Mof_C 	C 	0.795	0.1575	0.6785	-0.037
Mof_H 	H 	0.7719	0.1397	0.6637	0.031
Mof_C 	C 	0.798	0.2005	0.6738	0.011
Mof_C 	C 	0.814	0.2256	0.703	-0.058
Mof_H 	H 	0.8024	0.2545	0.7032	0.036
Mof_C 	C 	0.8342	0.2077	0.7368	0.009
Mof_H 	H 	0.8469	0.2259	0.7537	0.026
Mof_C 	C 	0.7589	0.2805	0.5995	-0.021
Mof_H 	H 	0.7566	0.3099	0.5977	0.03
Mof_C 	C 	0.777	0.2623	0.6342	-0.055
Mof_H 	H 	0.7872	0.2793	0.6562	0.039
Mof_C 	C 	0.7655	0.1944	0.6048	-0.056
Mof_H 	H 	0.7677	0.1651	0.6066	0.043
Mof_C 	C 	0.7473	0.2126	0.57	-0.021
Mof_H 	H 	0.7371	0.1957	0.5481	0.03
Mof_C 	C 	0.6869	0.2599	0.5145	-0.087
Mof_H 	H 	0.6757	0.2349	0.5255	0.054
Mof_C 	C 	0.6672	0.2802	0.4823	0.029
Mof_H 	H 	0.6423	0.2691	0.4708	0.028
Mof_O 	O 	0.717	0.3535	0.3968	-0.201
Mof_O 	O 	0.8862	0.2066	0.8336	-0.237
Mof_O 	O 	0.1639	0.0997	0.0509	-0.415
Mof_C 	C 	0.1696	0.9899	0.0412	-0.007
Mof_H 	H 	0.1704	0.9818	0.0696	0.046
Mof_C 	C 	0.3152	0.3604	0.7877	-0.017
Mof_H 	H 	0.3161	0.3898	0.7858	0.045
Mof_C 	C 	0.295	0.3425	0.8215	-0.037
Mof_H 	H 	0.2719	0.3603	0.8363	0.031
Mof_C 	C 	0.298	0.2995	0.8262	0.011
Mof_C 	C 	0.314	0.2744	0.797	-0.058
Mof_H 	H 	0.3024	0.2455	0.7968	0.036
Mof_C 	C 	0.3342	0.2923	0.7632	0.009
Mof_H 	H 	0.3469	0.2741	0.7463	0.026
Mof_C 	C 	0.2589	0.2195	0.9005	-0.021
Mof_H 	H 	0.2566	0.1901	0.9023	0.03
Mof_C 	C 	0.277	0.2377	0.8658	-0.055
Mof_H 	H 	0.2872	0.2207	0.8438	0.039
Mof_C 	C 	0.2655	0.3056	0.8952	-0.056
Mof_H 	H 	0.2677	0.3349	0.8934	0.043
Mof_C 	C 	0.2473	0.2874	0.93	-0.021
Mof_H 	H 	0.2371	0.3043	0.9519	0.03
Mof_C 	C 	0.1869	0.2401	0.9855	-0.087
Mof_H 	H 	0.1757	0.2651	0.9745	0.054
Mof_C 	C 	0.1672	0.2198	0.0177	0.029
Mof_H 	H 	0.1423	0.2309	0.0292	0.028
Mof_O 	O 	0.217	0.1465	0.1032	-0.201
Mof_O 	O 	0.3862	0.2934	0.6664	-0.237
Mof_O 	O 	0.6639	0.5997	0.5509	-0.415
Mof_C 	C 	0.6696	0.4899	0.5412	-0.007
Mof_H 	H 	0.6704	0.4818	0.5696	0.046
Mof_C 	C 	0.8152	0.8604	0.2877	-0.017
Mof_H 	H 	0.8161	0.8898	0.2858	0.045
Mof_C 	C 	0.795	0.8425	0.3215	-0.037
Mof_H 	H 	0.7719	0.8603	0.3363	0.031
Mof_C 	C 	0.798	0.7995	0.3262	0.011
Mof_C 	C 	0.814	0.7744	0.297	-0.058
Mof_H 	H 	0.8024	0.7455	0.2968	0.036
Mof_C 	C 	0.8342	0.7923	0.2632	0.009
Mof_H 	H 	0.8469	0.7741	0.2463	0.026
Mof_C 	C 	0.7589	0.7195	0.4005	-0.021
Mof_H 	H 	0.7566	0.6901	0.4023	0.03
Mof_C 	C 	0.777	0.7377	0.3658	-0.055
Mof_H 	H 	0.7872	0.7207	0.3438	0.039
Mof_C 	C 	0.7655	0.8056	0.3952	-0.056
Mof_H 	H 	0.7677	0.8349	0.3934	0.043
Mof_C 	C 	0.7473	0.7874	0.43	-0.021
Mof_H 	H 	0.7371	0.8043	0.4519	0.03
Mof_C 	C 	0.6869	0.7401	0.4855	-0.087
Mof_H 	H 	0.6757	0.7651	0.4745	0.054
Mof_C 	C 	0.6672	0.7198	0.5177	0.029
Mof_H 	H 	0.6423	0.7309	0.5292	0.028
Mof_O 	O 	0.717	0.6465	0.6032	-0.201
Mof_O 	O 	0.8862	0.7934	0.1664	-0.237
Mof_O 	O 	0.8361	0.0997	0.9491	-0.415
Mof_C 	C 	0.8304	0.9899	0.9588	-0.007
Mof_H 	H 	0.8296	0.9818	0.9304	0.046
Mof_C 	C 	0.6848	0.3604	0.2123	-0.017
Mof_H 	H 	0.6839	0.3898	0.2142	0.045
Mof_C 	C 	0.705	0.3425	0.1785	-0.037
Mof_H 	H 	0.7281	0.3603	0.1637	0.031
Mof_C 	C 	0.702	0.2995	0.1738	0.011
Mof_C 	C 	0.686	0.2744	0.203	-0.058
Mof_H 	H 	0.6976	0.2455	0.2032	0.036
Mof_C 	C 	0.6658	0.2923	0.2368	0.009
Mof_H 	H 	0.6531	0.2741	0.2537	0.026
Mof_C 	C 	0.7411	0.2195	0.0995	-0.021
Mof_H 	H 	0.7434	0.1901	0.0977	0.03
Mof_C 	C 	0.723	0.2377	0.1342	-0.055
Mof_H 	H 	0.7128	0.2207	0.1562	0.039
Mof_C 	C 	0.7345	0.3056	0.1048	-0.056
Mof_H 	H 	0.7323	0.3349	0.1066	0.043
Mof_C 	C 	0.7527	0.2874	0.07	-0.021
Mof_H 	H 	0.7629	0.3043	0.0481	0.03
Mof_C 	C 	0.8131	0.2401	0.0145	-0.087
Mof_H 	H 	0.8243	0.2651	0.0255	0.054
Mof_C 	C 	0.8328	0.2198	0.9823	0.029
Mof_H 	H 	0.8577	0.2309	0.9708	0.028
Mof_O 	O 	0.783	0.1465	0.8968	-0.201
Mof_O 	O 	0.6138	0.2934	0.3336	-0.237
Mof_O 	O 	0.3361	0.5997	0.4491	-0.415
Mof_C 	C 	0.3304	0.4899	0.4588	-0.007
Mof_H 	H 	0.3296	0.4818	0.4304	0.046
Mof_C 	C 	0.1848	0.8604	0.7123	-0.017
Mof_H 	H 	0.1839	0.8898	0.7142	0.045
Mof_C 	C 	0.205	0.8425	0.6785	-0.037
Mof_H 	H 	0.2281	0.8603	0.6637	0.031
Mof_C 	C 	0.202	0.7995	0.6738	0.011
Mof_C 	C 	0.186	0.7744	0.703	-0.058
Mof_H 	H 	0.1976	0.7455	0.7032	0.036
Mof_C 	C 	0.1658	0.7923	0.7368	0.009
Mof_H 	H 	0.1531	0.7741	0.7537	0.026
Mof_C 	C 	0.2411	0.7195	0.5995	-0.021
Mof_H 	H 	0.2434	0.6901	0.5977	0.03
Mof_C 	C 	0.223	0.7377	0.6342	-0.055
Mof_H 	H 	0.2128	0.7207	0.6562	0.039
Mof_C 	C 	0.2345	0.8056	0.6048	-0.056
Mof_H 	H 	0.2323	0.8349	0.6066	0.043
Mof_C 	C 	0.2527	0.7874	0.57	-0.021
Mof_H 	H 	0.2629	0.8043	0.5481	0.03
Mof_C 	C 	0.3131	0.7401	0.5145	-0.087
Mof_H 	H 	0.3243	0.7651	0.5255	0.054
Mof_C 	C 	0.3328	0.7198	0.4823	0.029
Mof_H 	H 	0.3577	0.7309	0.4708	0.028
Mof_O 	O 	0.283	0.6465	0.3968	-0.201
Mof_O 	O 	0.1138	0.7934	0.8336	-0.237
Mof_O 	O 	0.9003	0.0509	0.8361	-0.415
Mof_C 	C 	0.0101	0.0412	0.8304	-0.007
Mof_H 	H 	0.0182	0.0696	0.8296	0.046
Mof_C 	C 	0.6396	0.7877	0.6848	-0.017
Mof_H 	H 	0.6102	0.7858	0.6839	0.045
Mof_C 	C 	0.6575	0.8215	0.705	-0.037
Mof_H 	H 	0.6397	0.8363	0.7281	0.031
Mof_C 	C 	0.7005	0.8262	0.702	0.011
Mof_C 	C 	0.7256	0.797	0.686	-0.058
Mof_H 	H 	0.7545	0.7968	0.6976	0.036
Mof_C 	C 	0.7077	0.7632	0.6658	0.009
Mof_H 	H 	0.7259	0.7463	0.6531	0.026
Mof_C 	C 	0.7805	0.9005	0.7411	-0.021
Mof_H 	H 	0.8099	0.9023	0.7434	0.03
Mof_C 	C 	0.7623	0.8658	0.723	-0.055
Mof_H 	H 	0.7793	0.8438	0.7128	0.039
Mof_C 	C 	0.6944	0.8952	0.7345	-0.056
Mof_H 	H 	0.6651	0.8934	0.7323	0.043
Mof_C 	C 	0.7126	0.93	0.7527	-0.021
Mof_H 	H 	0.6957	0.9519	0.7629	0.03
Mof_C 	C 	0.7599	0.9855	0.8131	-0.087
Mof_H 	H 	0.7349	0.9745	0.8243	0.054
Mof_C 	C 	0.7802	0.0177	0.8328	0.029
Mof_H 	H 	0.7691	0.0292	0.8577	0.028
Mof_O 	O 	0.8535	0.1032	0.783	-0.201
Mof_O 	O 	0.7066	0.6664	0.6138	-0.237
Mof_O 	O 	0.4003	0.5509	0.3361	-0.415
Mof_C 	C 	0.5101	0.5412	0.3304	-0.007
Mof_H 	H 	0.5182	0.5696	0.3296	0.046
Mof_C 	C 	0.1396	0.2877	0.1848	-0.017
Mof_H 	H 	0.1102	0.2858	0.1839	0.045
Mof_C 	C 	0.1575	0.3215	0.205	-0.037
Mof_H 	H 	0.1397	0.3363	0.2281	0.031
Mof_C 	C 	0.2005	0.3262	0.202	0.011
Mof_C 	C 	0.2256	0.297	0.186	-0.058
Mof_H 	H 	0.2545	0.2968	0.1976	0.036
Mof_C 	C 	0.2077	0.2632	0.1658	0.009
Mof_H 	H 	0.2259	0.2463	0.1531	0.026
Mof_C 	C 	0.2805	0.4005	0.2411	-0.021
Mof_H 	H 	0.3099	0.4023	0.2434	0.03
Mof_C 	C 	0.2623	0.3658	0.223	-0.055
Mof_H 	H 	0.2793	0.3438	0.2128	0.039
Mof_C 	C 	0.1944	0.3952	0.2345	-0.056
Mof_H 	H 	0.1651	0.3934	0.2323	0.043
Mof_C 	C 	0.2126	0.43	0.2527	-0.021
Mof_H 	H 	0.1957	0.4519	0.2629	0.03
Mof_C 	C 	0.2599	0.4855	0.3131	-0.087
Mof_H 	H 	0.2349	0.4745	0.3243	0.054
Mof_C 	C 	0.2802	0.5177	0.3328	0.029
Mof_H 	H 	0.2691	0.5292	0.3577	0.028
Mof_O 	O 	0.3535	0.6032	0.283	-0.201
Mof_O 	O 	0.2066	0.1664	0.1138	-0.237
Mof_O 	O 	0.9003	0.9491	0.1639	-0.415
Mof_C 	C 	0.0101	0.9588	0.1696	-0.007
Mof_H 	H 	0.0182	0.9304	0.1704	0.046
Mof_C 	C 	0.6396	0.2123	0.3152	-0.017
Mof_H 	H 	0.6102	0.2142	0.3161	0.045
Mof_C 	C 	0.6575	0.1785	0.295	-0.037
Mof_H 	H 	0.6397	0.1637	0.2719	0.031
Mof_C 	C 	0.7005	0.1738	0.298	0.011
Mof_C 	C 	0.7256	0.203	0.314	-0.058
Mof_H 	H 	0.7545	0.2032	0.3024	0.036
Mof_C 	C 	0.7077	0.2368	0.3342	0.009
Mof_H 	H 	0.7259	0.2537	0.3469	0.026
Mof_C 	C 	0.7805	0.0995	0.2589	-0.021
Mof_H 	H 	0.8099	0.0977	0.2566	0.03
Mof_C 	C 	0.7623	0.1342	0.277	-0.055
Mof_H 	H 	0.7793	0.1562	0.2872	0.039
Mof_C 	C 	0.6944	0.1048	0.2655	-0.056
Mof_H 	H 	0.6651	0.1066	0.2677	0.043
Mof_C 	C 	0.7126	0.07	0.2473	-0.021
Mof_H 	H 	0.6957	0.0481	0.2371	0.03
Mof_C 	C 	0.7599	0.0145	0.1869	-0.087
Mof_H 	H 	0.7349	0.0255	0.1757	0.054
Mof_C 	C 	0.7802	0.9823	0.1672	0.029
Mof_H 	H 	0.7691	0.9708	0.1423	0.028
Mof_O 	O 	0.8535	0.8968	0.217	-0.201
Mof_O 	O 	0.7066	0.3336	0.3862	-0.237
Mof_O 	O 	0.4003	0.4491	0.6639	-0.415
Mof_C 	C 	0.5101	0.4588	0.6696	-0.007
Mof_H 	H 	0.5182	0.4304	0.6704	0.046
Mof_C 	C 	0.1396	0.7123	0.8152	-0.017
Mof_H 	H 	0.1102	0.7142	0.8161	0.045
Mof_C 	C 	0.1575	0.6785	0.795	-0.037
Mof_H 	H 	0.1397	0.6637	0.7719	0.031
Mof_C 	C 	0.2005	0.6738	0.798	0.011
Mof_C 	C 	0.2256	0.703	0.814	-0.058
Mof_H 	H 	0.2545	0.7032	0.8024	0.036
Mof_C 	C 	0.2077	0.7368	0.8342	0.009
Mof_H 	H 	0.2259	0.7537	0.8469	0.026
Mof_C 	C 	0.2805	0.5995	0.7589	-0.021
Mof_H 	H 	0.3099	0.5977	0.7566	0.03
Mof_C 	C 	0.2623	0.6342	0.777	-0.055
Mof_H 	H 	0.2793	0.6562	0.7872	0.039
Mof_C 	C 	0.1944	0.6048	0.7655	-0.056
Mof_H 	H 	0.1651	0.6066	0.7677	0.043
Mof_C 	C 	0.2126	0.57	0.7473	-0.021
Mof_H 	H 	0.1957	0.5481	0.7371	0.03
Mof_C 	C 	0.2599	0.5145	0.6869	-0.087
Mof_H 	H 	0.2349	0.5255	0.6757	0.054
Mof_C 	C 	0.2802	0.4823	0.6672	0.029
Mof_H 	H 	0.2691	0.4708	0.6423	0.028
Mof_O 	O 	0.3535	0.3968	0.717	-0.201
Mof_O 	O 	0.2066	0.8336	0.8862	-0.237
Mof_O 	O 	0.0997	0.0509	0.1639	-0.415
Mof_C 	C 	0.9899	0.0412	0.1696	-0.007
Mof_H 	H 	0.9818	0.0696	0.1704	0.046
Mof_C 	C 	0.3604	0.7877	0.3152	-0.017
Mof_H 	H 	0.3898	0.7858	0.3161	0.045
Mof_C 	C 	0.3425	0.8215	0.295	-0.037
Mof_H 	H 	0.3603	0.8363	0.2719	0.031
Mof_C 	C 	0.2995	0.8262	0.298	0.011
Mof_C 	C 	0.2744	0.797	0.314	-0.058
Mof_H 	H 	0.2455	0.7968	0.3024	0.036
Mof_C 	C 	0.2923	0.7632	0.3342	0.009
Mof_H 	H 	0.2741	0.7463	0.3469	0.026
Mof_C 	C 	0.2195	0.9005	0.2589	-0.021
Mof_H 	H 	0.1901	0.9023	0.2566	0.03
Mof_C 	C 	0.2377	0.8658	0.277	-0.055
Mof_H 	H 	0.2207	0.8438	0.2872	0.039
Mof_C 	C 	0.3056	0.8952	0.2655	-0.056
Mof_H 	H 	0.3349	0.8934	0.2677	0.043
Mof_C 	C 	0.2874	0.93	0.2473	-0.021
Mof_H 	H 	0.3043	0.9519	0.2371	0.03
Mof_C 	C 	0.2401	0.9855	0.1869	-0.087
Mof_H 	H 	0.2651	0.9745	0.1757	0.054
Mof_C 	C 	0.2198	0.0177	0.1672	0.029
Mof_H 	H 	0.2309	0.0292	0.1423	0.028
Mof_O 	O 	0.1465	0.1032	0.217	-0.201
Mof_O 	O 	0.2934	0.6664	0.3862	-0.237
Mof_O 	O 	0.5997	0.5509	0.6639	-0.415
Mof_C 	C 	0.4899	0.5412	0.6696	-0.007
Mof_H 	H 	0.4818	0.5696	0.6704	0.046
Mof_C 	C 	0.8604	0.2877	0.8152	-0.017
Mof_H 	H 	0.8898	0.2858	0.8161	0.045
Mof_C 	C 	0.8425	0.3215	0.795	-0.037
Mof_H 	H 	0.8603	0.3363	0.7719	0.031
Mof_C 	C 	0.7995	0.3262	0.798	0.011
Mof_C 	C 	0.7744	0.297	0.814	-0.058
Mof_H 	H 	0.7455	0.2968	0.8024	0.036
Mof_C 	C 	0.7923	0.2632	0.8342	0.009
Mof_H 	H 	0.7741	0.2463	0.8469	0.026
Mof_C 	C 	0.7195	0.4005	0.7589	-0.021
Mof_H 	H 	0.6901	0.4023	0.7566	0.03
Mof_C 	C 	0.7377	0.3658	0.777	-0.055
Mof_H 	H 	0.7207	0.3438	0.7872	0.039
Mof_C 	C 	0.8056	0.3952	0.7655	-0.056
Mof_H 	H 	0.8349	0.3934	0.7677	0.043
Mof_C 	C 	0.7874	0.43	0.7473	-0.021
Mof_H 	H 	0.8043	0.4519	0.7371	0.03
Mof_C 	C 	0.7401	0.4855	0.6869	-0.087
Mof_H 	H 	0.7651	0.4745	0.6757	0.054
Mof_C 	C 	0.7198	0.5177	0.6672	0.029
Mof_H 	H 	0.7309	0.5292	0.6423	0.028
Mof_O 	O 	0.6465	0.6032	0.717	-0.201
Mof_O 	O 	0.7934	0.1664	0.8862	-0.237
Mof_O 	O 	0.0997	0.9491	0.8361	-0.415
Mof_C 	C 	0.9899	0.9588	0.8304	-0.007
Mof_H 	H 	0.9818	0.9304	0.8296	0.046
Mof_C 	C 	0.3604	0.2123	0.6848	-0.017
Mof_H 	H 	0.3898	0.2142	0.6839	0.045
Mof_C 	C 	0.3425	0.1785	0.705	-0.037
Mof_H 	H 	0.3603	0.1637	0.7281	0.031
Mof_C 	C 	0.2995	0.1738	0.702	0.011
Mof_C 	C 	0.2744	0.203	0.686	-0.058
Mof_H 	H 	0.2455	0.2032	0.6976	0.036
Mof_C 	C 	0.2923	0.2368	0.6658	0.009
Mof_H 	H 	0.2741	0.2537	0.6531	0.026
Mof_C 	C 	0.2195	0.0995	0.7411	-0.021
Mof_H 	H 	0.1901	0.0977	0.7434	0.03
Mof_C 	C 	0.2377	0.1342	0.723	-0.055
Mof_H 	H 	0.2207	0.1562	0.7128	0.039
Mof_C 	C 	0.3056	0.1048	0.7345	-0.056
Mof_H 	H 	0.3349	0.1066	0.7323	0.043
Mof_C 	C 	0.2874	0.07	0.7527	-0.021
Mof_H 	H 	0.3043	0.0481	0.7629	0.03
Mof_C 	C 	0.2401	0.0145	0.8131	-0.087
Mof_H 	H 	0.2651	0.0255	0.8243	0.054
Mof_C 	C 	0.2198	0.9823	0.8328	0.029
Mof_H 	H 	0.2309	0.9708	0.8577	0.028
Mof_O 	O 	0.1465	0.8968	0.783	-0.201
Mof_O 	O 	0.2934	0.3336	0.6138	-0.237
Mof_O 	O 	0.5997	0.4491	0.3361	-0.415
Mof_C 	C 	0.4899	0.4588	0.3304	-0.007
Mof_H 	H 	0.4818	0.4304	0.3296	0.046
Mof_C 	C 	0.8604	0.7123	0.1848	-0.017
Mof_H 	H 	0.8898	0.7142	0.1839	0.045
Mof_C 	C 	0.8425	0.6785	0.205	-0.037
Mof_H 	H 	0.8603	0.6637	0.2281	0.031
Mof_C 	C 	0.7995	0.6738	0.202	0.011
Mof_C 	C 	0.7744	0.703	0.186	-0.058
Mof_H 	H 	0.7455	0.7032	0.1976	0.036
Mof_C 	C 	0.7923	0.7368	0.1658	0.009
Mof_H 	H 	0.7741	0.7537	0.1531	0.026
Mof_C 	C 	0.7195	0.5995	0.2411	-0.021
Mof_H 	H 	0.6901	0.5977	0.2434	0.03
Mof_C 	C 	0.7377	0.6342	0.223	-0.055
Mof_H 	H 	0.7207	0.6562	0.2128	0.039
Mof_C 	C 	0.8056	0.6048	0.2345	-0.056
Mof_H 	H 	0.8349	0.6066	0.2323	0.043
Mof_C 	C 	0.7874	0.57	0.2527	-0.021
Mof_H 	H 	0.8043	0.5481	0.2629	0.03
Mof_C 	C 	0.7401	0.5145	0.3131	-0.087
Mof_H 	H 	0.7651	0.5255	0.3243	0.054
Mof_C 	C 	0.7198	0.4823	0.3328	0.029
Mof_H 	H 	0.7309	0.4708	0.3577	0.028
Mof_O 	O 	0.6465	0.3968	0.283	-0.201
Mof_O 	O 	0.7934	0.8336	0.1138	-0.237
Mof_Ni	Ni	0.84493	0.08146	0.84493	1.139
Mof_N 	N 	0.8164	0.033	0.8164	-0.218
Mof_C 	C 	0.66479	0.7586	0.66479	-0.076
Mof_C 	C 	0.6424	0.7223	0.6424	0.361
Mof_C 	C 	0.7765	0.9692	0.7765	0.122
Mof_C 	C 	0.7558	0.9326	0.7558	-0.033
Mof_C 	C 	0.7195	0.8631	0.7195	0.043
Mof_Ni	Ni	0.34493	0.58146	0.34493	1.139
Mof_N 	N 	0.3164	0.533	0.3164	-0.218
Mof_C 	C 	0.16479	0.2586	0.16479	-0.076
Mof_C 	C 	0.1424	0.2223	0.1424	0.361
Mof_C 	C 	0.2765	0.4692	0.2765	0.122
Mof_C 	C 	0.2558	0.4326	0.2558	-0.033
Mof_C 	C 	0.2195	0.3631	0.2195	0.043
Mof_Ni	Ni	0.15507	0.91854	0.84493	1.139
Mof_N 	N 	0.1836	0.967	0.8164	-0.218
Mof_C 	C 	0.33521	0.2414	0.66479	-0.076
Mof_C 	C 	0.3576	0.2777	0.6424	0.361
Mof_C 	C 	0.2235	0.0308	0.7765	0.122
Mof_C 	C 	0.2442	0.0674	0.7558	-0.033
Mof_C 	C 	0.2805	0.1369	0.7195	0.043
Mof_Ni	Ni	0.65507	0.41854	0.34493	1.139
Mof_N 	N 	0.6836	0.467	0.3164	-0.218
Mof_C 	C 	0.83521	0.7414	0.16479	-0.076
Mof_C 	C 	0.8576	0.7777	0.1424	0.361
Mof_C 	C 	0.7235	0.5308	0.2765	0.122
Mof_C 	C 	0.7442	0.5674	0.2558	-0.033
Mof_C 	C 	0.7805	0.6369	0.2195	0.043
Mof_Ni	Ni	0.15507	0.08146	0.15507	1.139
Mof_N 	N 	0.1836	0.033	0.1836	-0.218
Mof_C 	C 	0.33521	0.7586	0.33521	-0.076
Mof_C 	C 	0.3576	0.7223	0.3576	0.361
Mof_C 	C 	0.2235	0.9692	0.2235	0.122
Mof_C 	C 	0.2442	0.9326	0.2442	-0.033
Mof_C 	C 	0.2805	0.8631	0.2805	0.043
Mof_Ni	Ni	0.65507	0.58146	0.65507	1.139
Mof_N 	N 	0.6836	0.533	0.6836	-0.218
Mof_C 	C 	0.83521	0.2586	0.83521	-0.076
Mof_C 	C 	0.8576	0.2223	0.8576	0.361
Mof_C 	C 	0.7235	0.4692	0.7235	0.122
Mof_C 	C 	0.7442	0.4326	0.7442	-0.033
Mof_C 	C 	0.7805	0.3631	0.7805	0.043
Mof_Ni	Ni	0.84493	0.91854	0.15507	1.139
Mof_N 	N 	0.8164	0.967	0.1836	-0.218
Mof_C 	C 	0.66479	0.2414	0.33521	-0.076
Mof_C 	C 	0.6424	0.2777	0.3576	0.361
Mof_C 	C 	0.7765	0.0308	0.2235	0.122
Mof_C 	C 	0.7558	0.0674	0.2442	-0.033
Mof_C 	C 	0.7195	0.1369	0.2805	0.043
Mof_Ni	Ni	0.34493	0.41854	0.65507	1.139
Mof_N 	N 	0.3164	0.467	0.6836	-0.218
Mof_C 	C 	0.16479	0.7414	0.83521	-0.076
Mof_C 	C 	0.1424	0.7777	0.8576	0.361
Mof_C 	C 	0.2765	0.5308	0.7235	0.122
Mof_C 	C 	0.2558	0.5674	0.7442	-0.033
Mof_C 	C 	0.2195	0.6369	0.7805	0.043
Mof_Ni	Ni	0.84493	0.84493	0.08146	1.139
Mof_N 	N 	0.8164	0.8164	0.033	-0.218
Mof_C 	C 	0.66479	0.66479	0.7586	-0.076
Mof_C 	C 	0.6424	0.6424	0.7223	0.361
Mof_C 	C 	0.7765	0.7765	0.9692	0.122
Mof_C 	C 	0.7558	0.7558	0.9326	-0.033
Mof_C 	C 	0.7195	0.7195	0.8631	0.043
Mof_Ni	Ni	0.34493	0.34493	0.58146	1.139
Mof_N 	N 	0.3164	0.3164	0.533	-0.218
Mof_C 	C 	0.16479	0.16479	0.2586	-0.076
Mof_C 	C 	0.1424	0.1424	0.2223	0.361
Mof_C 	C 	0.2765	0.2765	0.4692	0.122
Mof_C 	C 	0.2558	0.2558	0.4326	-0.033
Mof_C 	C 	0.2195	0.2195	0.3631	0.043
Mof_Ni	Ni	0.84493	0.15507	0.91854	1.139
Mof_N 	N 	0.8164	0.1836	0.967	-0.218
Mof_C 	C 	0.66479	0.33521	0.2414	-0.076
Mof_C 	C 	0.6424	0.3576	0.2777	0.361
Mof_C 	C 	0.7765	0.2235	0.0308	0.122
Mof_C 	C 	0.7558	0.2442	0.0674	-0.033
Mof_C 	C 	0.7195	0.2805	0.1369	0.043
Mof_Ni	Ni	0.34493	0.65507	0.41854	1.139
Mof_N 	N 	0.3164	0.6836	0.467	-0.218
Mof_C 	C 	0.16479	0.83521	0.7414	-0.076
Mof_C 	C 	0.1424	0.8576	0.7777	0.361
Mof_C 	C 	0.2765	0.7235	0.5308	0.122
Mof_C 	C 	0.2558	0.7442	0.5674	-0.033
Mof_C 	C 	0.2195	0.7805	0.6369	0.043
Mof_Ni	Ni	0.15507	0.15507	0.08146	1.139
Mof_N 	N 	0.1836	0.1836	0.033	-0.218
Mof_C 	C 	0.33521	0.33521	0.7586	-0.076
Mof_C 	C 	0.3576	0.3576	0.7223	0.361
Mof_C 	C 	0.2235	0.2235	0.9692	0.122
Mof_C 	C 	0.2442	0.2442	0.9326	-0.033
Mof_C 	C 	0.2805	0.2805	0.8631	0.043
Mof_Ni	Ni	0.65507	0.65507	0.58146	1.139
Mof_N 	N 	0.6836	0.6836	0.533	-0.218
Mof_C 	C 	0.83521	0.83521	0.2586	-0.076
Mof_C 	C 	0.8576	0.8576	0.2223	0.361
Mof_C 	C 	0.7235	0.7235	0.4692	0.122
Mof_C 	C 	0.7442	0.7442	0.4326	-0.033
Mof_C 	C 	0.7805	0.7805	0.3631	0.043
Mof_Ni	Ni	0.15507	0.84493	0.91854	1.139
Mof_N 	N 	0.1836	0.8164	0.967	-0.218
Mof_C 	C 	0.33521	0.66479	0.2414	-0.076
Mof_C 	C 	0.3576	0.6424	0.2777	0.361
Mof_C 	C 	0.2235	0.7765	0.0308	0.122
Mof_C 	C 	0.2442	0.7558	0.0674	-0.033
Mof_C 	C 	0.2805	0.7195	0.1369	0.043
Mof_Ni	Ni	0.65507	0.34493	0.41854	1.139
Mof_N 	N 	0.6836	0.3164	0.467	-0.218
Mof_C 	C 	0.83521	0.16479	0.7414	-0.076
Mof_C 	C 	0.8576	0.1424	0.7777	0.361
Mof_C 	C 	0.7235	0.2765	0.5308	0.122
Mof_C 	C 	0.7442	0.2558	0.5674	-0.033
Mof_C 	C 	0.7805	0.2195	0.6369	0.043
Mof_Ni	Ni	0.08146	0.84493	0.84493	1.139
Mof_N 	N 	0.033	0.8164	0.8164	-0.218
Mof_C 	C 	0.7586	0.66479	0.66479	-0.076
Mof_C 	C 	0.7223	0.6424	0.6424	0.361
Mof_C 	C 	0.9692	0.7765	0.7765	0.122
Mof_C 	C 	0.9326	0.7558	0.7558	-0.033
Mof_C 	C 	0.8631	0.7195	0.7195	0.043
Mof_Ni	Ni	0.58146	0.34493	0.34493	1.139
Mof_N 	N 	0.533	0.3164	0.3164	-0.218
Mof_C 	C 	0.2586	0.16479	0.16479	-0.076
Mof_C 	C 	0.2223	0.1424	0.1424	0.361
Mof_C 	C 	0.4692	0.2765	0.2765	0.122
Mof_C 	C 	0.4326	0.2558	0.2558	-0.033
Mof_C 	C 	0.3631	0.2195	0.2195	0.043
Mof_Ni	Ni	0.91854	0.84493	0.15507	1.139
Mof_N 	N 	0.967	0.8164	0.1836	-0.218
Mof_C 	C 	0.2414	0.66479	0.33521	-0.076
Mof_C 	C 	0.2777	0.6424	0.3576	0.361
Mof_C 	C 	0.0308	0.7765	0.2235	0.122
Mof_C 	C 	0.0674	0.7558	0.2442	-0.033
Mof_C 	C 	0.1369	0.7195	0.2805	0.043
Mof_Ni	Ni	0.41854	0.34493	0.65507	1.139
Mof_N 	N 	0.467	0.3164	0.6836	-0.218
Mof_C 	C 	0.7414	0.16479	0.83521	-0.076
Mof_C 	C 	0.7777	0.1424	0.8576	0.361
Mof_C 	C 	0.5308	0.2765	0.7235	0.122
Mof_C 	C 	0.5674	0.2558	0.7442	-0.033
Mof_C 	C 	0.6369	0.2195	0.7805	0.043
Mof_Ni	Ni	0.08146	0.15507	0.15507	1.139
Mof_N 	N 	0.033	0.1836	0.1836	-0.218
Mof_C 	C 	0.7586	0.33521	0.33521	-0.076
Mof_C 	C 	0.7223	0.3576	0.3576	0.361
Mof_C 	C 	0.9692	0.2235	0.2235	0.122
Mof_C 	C 	0.9326	0.2442	0.2442	-0.033
Mof_C 	C 	0.8631	0.2805	0.2805	0.043
Mof_Ni	Ni	0.58146	0.65507	0.65507	1.139
Mof_N 	N 	0.533	0.6836	0.6836	-0.218
Mof_C 	C 	0.2586	0.83521	0.83521	-0.076
Mof_C 	C 	0.2223	0.8576	0.8576	0.361
Mof_C 	C 	0.4692	0.7235	0.7235	0.122
Mof_C 	C 	0.4326	0.7442	0.7442	-0.033
Mof_C 	C 	0.3631	0.7805	0.7805	0.043
Mof_Ni	Ni	0.91854	0.15507	0.84493	1.139
Mof_N 	N 	0.967	0.1836	0.8164	-0.218
Mof_C 	C 	0.2414	0.33521	0.66479	-0.076
Mof_C 	C 	0.2777	0.3576	0.6424	0.361
Mof_C 	C 	0.0308	0.2235	0.7765	0.122
Mof_C 	C 	0.0674	0.2442	0.7558	-0.033
Mof_C 	C 	0.1369	0.2805	0.7195	0.043
Mof_Ni	Ni	0.41854	0.65507	0.34493	1.139
Mof_N 	N 	0.467	0.6836	0.3164	-0.218
Mof_C 	C 	0.7414	0.83521	0.16479	-0.076
Mof_C 	C 	0.7777	0.8576	0.1424	0.361
Mof_C 	C 	0.5308	0.7235	0.2765	0.122
Mof_C 	C 	0.5674	0.7442	0.2558	-0.033
Mof_C 	C 	0.6369	0.7805	0.2195	0.043
Mof_O 	O 	0.8758	0.1242	0.8758	-0.574
Mof_O 	O 	0.3758	0.6242	0.3758	-0.574
Mof_O 	O 	0.1242	0.8758	0.8758	-0.574
Mof_O 	O 	0.6242	0.3758	0.3758	-0.574
Mof_O 	O 	0.1242	0.1242	0.1242	-0.574
Mof_O 	O 	0.6242	0.6242	0.6242	-0.574
Mof_O 	O 	0.8758	0.8758	0.1242	-0.574
Mof_O 	O 	0.3758	0.3758	0.6242	-0.574
Mof_C 	C 	0.8315	0.0316	0.9684	-0.098
Mof_C 	C 	0.8331	0.0634	0.9366	0.405
Mof_C 	C 	0.3315	0.5316	0.4684	-0.098
Mof_C 	C 	0.3331	0.5634	0.4366	0.405
Mof_C 	C 	0.1685	0.9684	0.9684	-0.098
Mof_C 	C 	0.1669	0.9366	0.9366	0.405
Mof_C 	C 	0.6685	0.4684	0.4684	-0.098
Mof_C 	C 	0.6669	0.4366	0.4366	0.405
Mof_C 	C 	0.1685	0.0316	0.0316	-0.098
Mof_C 	C 	0.1669	0.0634	0.0634	0.405
Mof_C 	C 	0.6685	0.5316	0.5316	-0.098
Mof_C 	C 	0.6669	0.5634	0.5634	0.405
Mof_C 	C 	0.8315	0.9684	0.0316	-0.098
Mof_C 	C 	0.8331	0.9366	0.0634	0.405
Mof_C 	C 	0.3315	0.4684	0.5316	-0.098
Mof_C 	C 	0.3331	0.4366	0.5634	0.405
Mof_C 	C 	0.9684	0.8315	0.0316	-0.098
Mof_C 	C 	0.9366	0.8331	0.0634	0.405
Mof_C 	C 	0.4684	0.3315	0.5316	-0.098
Mof_C 	C 	0.4366	0.3331	0.5634	0.405
Mof_C 	C 	0.9684	0.1685	0.9684	-0.098
Mof_C 	C 	0.9366	0.1669	0.9366	0.405
Mof_C 	C 	0.4684	0.6685	0.4684	-0.098
Mof_C 	C 	0.4366	0.6669	0.4366	0.405
Mof_C 	C 	0.0316	0.1685	0.0316	-0.098
Mof_C 	C 	0.0634	0.1669	0.0634	0.405
Mof_C 	C 	0.5316	0.6685	0.5316	-0.098
Mof_C 	C 	0.5634	0.6669	0.5634	0.405
Mof_C 	C 	0.0316	0.8315	0.9684	-0.098
Mof_C 	C 	0.0634	0.8331	0.9366	0.405
Mof_C 	C 	0.5316	0.3315	0.4684	-0.098
Mof_C 	C 	0.5634	0.3331	0.4366	0.405
Mof_C 	C 	0.0316	0.9684	0.8315	-0.098
Mof_C 	C 	0.0634	0.9366	0.8331	0.405
Mof_C 	C 	0.5316	0.4684	0.3315	-0.098
Mof_C 	C 	0.5634	0.4366	0.3331	0.405
Mof_C 	C 	0.9684	0.9684	0.1685	-0.098
Mof_C 	C 	0.9366	0.9366	0.1669	0.405
Mof_C 	C 	0.4684	0.4684	0.6685	-0.098
Mof_C 	C 	0.4366	0.4366	0.6669	0.405
Mof_C 	C 	0.0316	0.0316	0.1685	-0.098
Mof_C 	C 	0.0634	0.0634	0.1669	0.405
Mof_C 	C 	0.5316	0.5316	0.6685	-0.098
Mof_C 	C 	0.5634	0.5634	0.6669	0.405
Mof_C 	C 	0.9684	0.0316	0.8315	-0.098
Mof_C 	C 	0.9366	0.0634	0.8331	0.405
Mof_C 	C 	0.4684	0.5316	0.3315	-0.098
Mof_C 	C 	0.4366	0.5634	0.3331	0.405
Mof_C 	C 	0.268	0.732	0.4909	-0.12
Mof_H 	H 	0.2476	0.7524	0.4848	0.065
Mof_C 	C 	0.2871	0.7129	0.4595	0.063
Mof_H 	H 	0.2801	0.7199	0.4316	0.026
Mof_C 	C 	0.3063	0.6937	0.539	-0.116
Mof_H 	H 	0.313	0.687	0.567	0.064
Mof_C 	C 	0.3259	0.6741	0.5076	0.057
Mof_H 	H 	0.3464	0.6536	0.5136	0.018
Mof_C 	C 	0.768	0.232	0.9909	-0.12
Mof_H 	H 	0.7476	0.2524	0.9848	0.065
Mof_C 	C 	0.7871	0.2129	0.9595	0.063
Mof_H 	H 	0.7801	0.2199	0.9316	0.026
Mof_C 	C 	0.8063	0.1937	0.039	-0.116
Mof_H 	H 	0.813	0.187	0.067	0.064
Mof_C 	C 	0.8259	0.1741	0.0076	0.057
Mof_H 	H 	0.8464	0.1536	0.0136	0.018
Mof_C 	C 	0.732	0.268	0.4909	-0.12
Mof_H 	H 	0.7524	0.2476	0.4848	0.065
Mof_C 	C 	0.7129	0.2871	0.4595	0.063
Mof_H 	H 	0.7199	0.2801	0.4316	0.026
Mof_C 	C 	0.6937	0.3063	0.539	-0.116
Mof_H 	H 	0.687	0.313	0.567	0.064
Mof_C 	C 	0.6741	0.3259	0.5076	0.057
Mof_H 	H 	0.6536	0.3464	0.5136	0.018
Mof_C 	C 	0.232	0.768	0.9909	-0.12
Mof_H 	H 	0.2524	0.7476	0.9848	0.065
Mof_C 	C 	0.2129	0.7871	0.9595	0.063
Mof_H 	H 	0.2199	0.7801	0.9316	0.026
Mof_C 	C 	0.1937	0.8063	0.039	-0.116
Mof_H 	H 	0.187	0.813	0.067	0.064
Mof_C 	C 	0.1741	0.8259	0.0076	0.057
Mof_H 	H 	0.1536	0.8464	0.0136	0.018
Mof_C 	C 	0.732	0.732	0.5091	-0.12
Mof_H 	H 	0.7524	0.7524	0.5152	0.065
Mof_C 	C 	0.7129	0.7129	0.5405	0.063
Mof_H 	H 	0.7199	0.7199	0.5684	0.026
Mof_C 	C 	0.6937	0.6937	0.461	-0.116
Mof_H 	H 	0.687	0.687	0.433	0.064
Mof_C 	C 	0.6741	0.6741	0.4924	0.057
Mof_H 	H 	0.6536	0.6536	0.4864	0.018
Mof_C 	C 	0.232	0.232	0.0091	-0.12
Mof_H 	H 	0.2524	0.2524	0.0152	0.065
Mof_C 	C 	0.2129	0.2129	0.0405	0.063
Mof_H 	H 	0.2199	0.2199	0.0684	0.026
Mof_C 	C 	0.1937	0.1937	0.961	-0.116
Mof_H 	H 	0.187	0.187	0.933	0.064
Mof_C 	C 	0.1741	0.1741	0.9924	0.057
Mof_H 	H 	0.1536	0.1536	0.9864	0.018
Mof_C 	C 	0.268	0.268	0.5091	-0.12
Mof_H 	H 	0.2476	0.2476	0.5152	0.065
Mof_C 	C 	0.2871	0.2871	0.5405	0.063
Mof_H 	H 	0.2801	0.2801	0.5684	0.026
Mof_C 	C 	0.3063	0.3063	0.461	-0.116
Mof_H 	H 	0.313	0.313	0.433	0.064
Mof_C 	C 	0.3259	0.3259	0.4924	0.057
Mof_H 	H 	0.3464	0.3464	0.4864	0.018
Mof_C 	C 	0.768	0.768	0.0091	-0.12
Mof_H 	H 	0.7476	0.7476	0.0152	0.065
Mof_C 	C 	0.7871	0.7871	0.0405	0.063
Mof_H 	H 	0.7801	0.7801	0.0684	0.026
Mof_C 	C 	0.8063	0.8063	0.961	-0.116
Mof_H 	H 	0.813	0.813	0.933	0.064
Mof_C 	C 	0.8259	0.8259	0.9924	0.057
Mof_H 	H 	0.8464	0.8464	0.9864	0.018
Mof_C 	C 	0.4909	0.268	0.732	-0.12
Mof_H 	H 	0.4848	0.2476	0.7524	0.065
Mof_C 	C 	0.4595	0.2871	0.7129	0.063
Mof_H 	H 	0.4316	0.2801	0.7199	0.026
Mof_C 	C 	0.539	0.3063	0.6937	-0.116
Mof_H 	H 	0.567	0.313	0.687	0.064
Mof_C 	C 	0.5076	0.3259	0.6741	0.057
Mof_H 	H 	0.5136	0.3464	0.6536	0.018
Mof_C 	C 	0.9909	0.768	0.232	-0.12
Mof_H 	H 	0.9848	0.7476	0.2524	0.065
Mof_C 	C 	0.9595	0.7871	0.2129	0.063
Mof_H 	H 	0.9316	0.7801	0.2199	0.026
Mof_C 	C 	0.039	0.8063	0.1937	-0.116
Mof_H 	H 	0.067	0.813	0.187	0.064
Mof_C 	C 	0.0076	0.8259	0.1741	0.057
Mof_H 	H 	0.0136	0.8464	0.1536	0.018
Mof_C 	C 	0.4909	0.732	0.268	-0.12
Mof_H 	H 	0.4848	0.7524	0.2476	0.065
Mof_C 	C 	0.4595	0.7129	0.2871	0.063
Mof_H 	H 	0.4316	0.7199	0.2801	0.026
Mof_C 	C 	0.539	0.6937	0.3063	-0.116
Mof_H 	H 	0.567	0.687	0.313	0.064
Mof_C 	C 	0.5076	0.6741	0.3259	0.057
Mof_H 	H 	0.5136	0.6536	0.3464	0.018
Mof_C 	C 	0.9909	0.232	0.768	-0.12
Mof_H 	H 	0.9848	0.2524	0.7476	0.065
Mof_C 	C 	0.9595	0.2129	0.7871	0.063
Mof_H 	H 	0.9316	0.2199	0.7801	0.026
Mof_C 	C 	0.039	0.1937	0.8063	-0.116
Mof_H 	H 	0.067	0.187	0.813	0.064
Mof_C 	C 	0.0076	0.1741	0.8259	0.057
Mof_H 	H 	0.0136	0.1536	0.8464	0.018
Mof_C 	C 	0.5091	0.732	0.732	-0.12
Mof_H 	H 	0.5152	0.7524	0.7524	0.065
Mof_C 	C 	0.5405	0.7129	0.7129	0.063
Mof_H 	H 	0.5684	0.7199	0.7199	0.026
Mof_C 	C 	0.461	0.6937	0.6937	-0.116
Mof_H 	H 	0.433	0.687	0.687	0.064
Mof_C 	C 	0.4924	0.6741	0.6741	0.057
Mof_H 	H 	0.4864	0.6536	0.6536	0.018
Mof_C 	C 	0.0091	0.232	0.232	-0.12
Mof_H 	H 	0.0152	0.2524	0.2524	0.065
Mof_C 	C 	0.0405	0.2129	0.2129	0.063
Mof_H 	H 	0.0684	0.2199	0.2199	0.026
Mof_C 	C 	0.961	0.1937	0.1937	-0.116
Mof_H 	H 	0.933	0.187	0.187	0.064
Mof_C 	C 	0.9924	0.1741	0.1741	0.057
Mof_H 	H 	0.9864	0.1536	0.1536	0.018
Mof_C 	C 	0.5091	0.268	0.268	-0.12
Mof_H 	H 	0.5152	0.2476	0.2476	0.065
Mof_C 	C 	0.5405	0.2871	0.2871	0.063
Mof_H 	H 	0.5684	0.2801	0.2801	0.026
Mof_C 	C 	0.461	0.3063	0.3063	-0.116
Mof_H 	H 	0.433	0.313	0.313	0.064
Mof_C 	C 	0.4924	0.3259	0.3259	0.057
Mof_H 	H 	0.4864	0.3464	0.3464	0.018
Mof_C 	C 	0.0091	0.768	0.768	-0.12
Mof_H 	H 	0.0152	0.7476	0.7476	0.065
Mof_C 	C 	0.0405	0.7871	0.7871	0.063
Mof_H 	H 	0.0684	0.7801	0.7801	0.026
Mof_C 	C 	0.961	0.8063	0.8063	-0.116
Mof_H 	H 	0.933	0.813	0.813	0.064
Mof_C 	C 	0.9924	0.8259	0.8259	0.057
Mof_H 	H 	0.9864	0.8464	0.8464	0.018
Mof_C 	C 	0.732	0.4909	0.268	-0.12
Mof_H 	H 	0.7524	0.4848	0.2476	0.065
Mof_C 	C 	0.7129	0.4595	0.2871	0.063
Mof_H 	H 	0.7199	0.4316	0.2801	0.026
Mof_C 	C 	0.6937	0.539	0.3063	-0.116
Mof_H 	H 	0.687	0.567	0.313	0.064
Mof_C 	C 	0.6741	0.5076	0.3259	0.057
Mof_H 	H 	0.6536	0.5136	0.3464	0.018
Mof_C 	C 	0.232	0.9909	0.768	-0.12
Mof_H 	H 	0.2524	0.9848	0.7476	0.065
Mof_C 	C 	0.2129	0.9595	0.7871	0.063
Mof_H 	H 	0.2199	0.9316	0.7801	0.026
Mof_C 	C 	0.1937	0.039	0.8063	-0.116
Mof_H 	H 	0.187	0.067	0.813	0.064
Mof_C 	C 	0.1741	0.0076	0.8259	0.057
Mof_H 	H 	0.1536	0.0136	0.8464	0.018
Mof_C 	C 	0.268	0.4909	0.732	-0.12
Mof_H 	H 	0.2476	0.4848	0.7524	0.065
Mof_C 	C 	0.2871	0.4595	0.7129	0.063
Mof_H 	H 	0.2801	0.4316	0.7199	0.026
Mof_C 	C 	0.3063	0.539	0.6937	-0.116
Mof_H 	H 	0.313	0.567	0.687	0.064
Mof_C 	C 	0.3259	0.5076	0.6741	0.057
Mof_H 	H 	0.3464	0.5136	0.6536	0.018
Mof_C 	C 	0.768	0.9909	0.232	-0.12
Mof_H 	H 	0.7476	0.9848	0.2524	0.065
Mof_C 	C 	0.7871	0.9595	0.2129	0.063
Mof_H 	H 	0.7801	0.9316	0.2199	0.026
Mof_C 	C 	0.8063	0.039	0.1937	-0.116
Mof_H 	H 	0.813	0.067	0.187	0.064
Mof_C 	C 	0.8259	0.0076	0.1741	0.057
Mof_H 	H 	0.8464	0.0136	0.1536	0.018
Mof_C 	C 	0.732	0.5091	0.732	-0.12
Mof_H 	H 	0.7524	0.5152	0.7524	0.065
Mof_C 	C 	0.7129	0.5405	0.7129	0.063
Mof_H 	H 	0.7199	0.5684	0.7199	0.026
Mof_C 	C 	0.6937	0.461	0.6937	-0.116
Mof_H 	H 	0.687	0.433	0.687	0.064
Mof_C 	C 	0.6741	0.4924	0.6741	0.057
Mof_H 	H 	0.6536	0.4864	0.6536	0.018
Mof_C 	C 	0.232	0.0091	0.232	-0.12
Mof_H 	H 	0.2524	0.0152	0.2524	0.065
Mof_C 	C 	0.2129	0.0405	0.2129	0.063
Mof_H 	H 	0.2199	0.0684	0.2199	0.026
Mof_C 	C 	0.1937	0.961	0.1937	-0.116
Mof_H 	H 	0.187	0.933	0.187	0.064
Mof_C 	C 	0.1741	0.9924	0.1741	0.057
Mof_H 	H 	0.1536	0.9864	0.1536	0.018
Mof_C 	C 	0.268	0.5091	0.268	-0.12
Mof_H 	H 	0.2476	0.5152	0.2476	0.065
Mof_C 	C 	0.2871	0.5405	0.2871	0.063
Mof_H 	H 	0.2801	0.5684	0.2801	0.026
Mof_C 	C 	0.3063	0.461	0.3063	-0.116
Mof_H 	H 	0.313	0.433	0.313	0.064
Mof_C 	C 	0.3259	0.4924	0.3259	0.057
Mof_H 	H 	0.3464	0.4864	0.3464	0.018
Mof_C 	C 	0.768	0.0091	0.768	-0.12
Mof_H 	H 	0.7476	0.0152	0.7476	0.065
Mof_C 	C 	0.7871	0.0405	0.7871	0.063
Mof_H 	H 	0.7801	0.0684	0.7801	0.026
Mof_C 	C 	0.8063	0.961	0.8063	-0.116
Mof_H 	H 	0.813	0.933	0.813	0.064
Mof_C 	C 	0.8259	0.9924	0.8259	0.057
Mof_H 	H 	0.8464	0.9864	0.8464	0.018
_end
