# CIF file generated by openbabel 2.4.1, see http://openbabel.sf.net
data_I
_chemical_name_common 'image0'
_cell_length_a 25.457
_cell_length_b 21.8687
_cell_length_c 34.667
_cell_angle_alpha 90
_cell_angle_beta 108.143
_cell_angle_gamma 90
_space_group_name_H-M_alt 'P 1'
_space_group_name_Hall 'P 1'
loop_
    _symmetry_equiv_pos_as_xyz
    x,y,z
loop_
    _atom_site_label
    _atom_site_type_symbol
    _atom_site_fract_x
    _atom_site_fract_y
    _atom_site_fract_z
    _atom_site_occupancy
    W1      W    0.41641   0.07051   0.26551   1.000
    W2      W    0.54286   0.06126   0.33006   1.000
    W3      W    0.50448   0.95650   0.40394   1.000
    W4      W    0.37702   0.96660   0.33947   1.000
    W5      W    0.36648   0.94468   0.19425   1.000
    W6      W    0.39960   0.84737   0.11665   1.000
    W7      W    0.32951   0.83932   0.26593   1.000
    W8      W    0.36238   0.80600   0.37403   1.000
    W9      W    0.49487   0.78979   0.42749   1.000
    W10     W    0.37708   0.64034   0.34628   1.000
    W11     W    0.34537   0.67780   0.23660   1.000
    W12     W    0.38762   0.68370   0.14278   1.000
    W13     W    0.49110   0.62363   0.09954   1.000
    W14     W    0.45245   0.53217   0.17730   1.000
    W15     W    0.41315   0.53240   0.27368   1.000
    Ni1     Ni   0.23678   0.03261   0.15200   1.000
    Ni2     Ni   0.53605   0.83931   0.53460   1.000
    Ni3     Ni   0.32928   0.44102   0.13764   1.000
    P1      P    0.47670   0.66910   0.30093   1.000
    P2      P    0.46200   0.84740   0.33129   1.000
    O1      O    0.47910   0.55990   0.13040   1.000
    O2      O    0.40900   0.47610   0.14820   1.000
    O3      O    0.52270   0.48850   0.19560   1.000
    O4      O    0.44060   0.51930   0.22520   1.000
    O5      O    0.39680   0.56230   0.31640   1.000
    O6      O    0.37120   0.59600   0.23910   1.000
    O7      O    0.48260   0.60110   0.28860   1.000
    O8      O    0.40490   0.59900   0.16370   1.000
    O9      O    0.43050   0.66680   0.10830   1.000
    O10     O    0.53180   0.70150   0.31110   1.000
    O11     O    0.36200   0.69250   0.18980   1.000
    O12     O    0.43280   0.69980   0.26550   1.000
    O13     O    0.34690   0.66750   0.29270   1.000
    O14     O    0.45670   0.66740   0.33990   1.000
    O15     O    0.32160   0.59950   0.35390   1.000
    O16     O    0.43320   0.60790   0.39230   1.000
    O17     O    0.49500   0.70810   0.42020   1.000
    O18     O    0.37090   0.71350   0.36820   1.000
    O19     O    0.33770   0.76540   0.24390   1.000
    O20     O    0.38680   0.76820   0.13540   1.000
    O21     O    0.44280   0.80480   0.08730   1.000
    O22     O    0.43470   0.92160   0.10580   1.000
    O23     O    0.37770   0.88700   0.15690   1.000
    O24     O    0.52170   0.83750   0.33300   1.000
    O25     O    0.34750   0.88260   0.22360   1.000
    O26     O    0.42160   0.83440   0.28960   1.000
    O27     O    0.33370   0.80250   0.31720   1.000
    O28     O    0.44830   0.80460   0.36300   1.000
    O29     O    0.41790   0.79550   0.42420   1.000
    O30     O    0.51960   0.79530   0.47870   1.000
    O31     O    0.48990   0.88460   0.42420   1.000
    O32     O    0.36710   0.88710   0.37190   1.000
    O33     O    0.45560   0.91530   0.34370   1.000
    O34     O    0.34290   0.91730   0.29490   1.000
    O35     O    0.45000   0.91930   0.22870   1.000
    O36     O    0.29990   0.97010   0.16710   1.000
    O37     O    0.40330   0.00370   0.16800   1.000
    O38     O    0.37540   0.00450   0.23620   1.000
    O39     O    0.48650   0.00130   0.28060   1.000
    O40     O    0.39890   0.02600   0.31230   1.000
    O41     O    0.43090   0.98920   0.39140   1.000
    O42     O    0.51720   0.02380   0.36710   1.000
    O43     O    0.47590   0.10690   0.30580   1.000
    O44     O    0.43800   0.08920   0.22260   1.000
    N1      N    0.42180   0.20980   0.00920   1.000
    H1      H    0.42030   0.19870   0.98500   1.000
    N2      N    0.46610   0.20000   0.04190   1.000
    N3      N    0.34650   0.35960   0.11620   1.000
    N4      N    0.31980   0.30630   0.11980   1.000
    H2      H    0.29720   0.30270   0.13360   1.000
    N5      N    0.17630   0.96920   0.92930   1.000
    H3      H    0.15610   0.94520   0.91090   1.000
    N6      N    0.19840   0.02360   0.92030   1.000
    N7      N    0.29450   0.03840   0.09100   1.000
    H4      H    0.32430   0.04200   0.11120   1.000
    N8      N    0.24490   0.04460   0.09460   1.000
    N9      N    0.13320   0.96240   0.13830   1.000
    H5      H    0.11990   0.99340   0.14740   1.000
    N10     N    0.18300   0.96190   0.13150   1.000
    N11     N    0.13510   0.71440   0.09460   1.000
    H6      H    0.14750   0.67790   0.10050   1.000
    N12     N    0.08980   0.72830   0.06250   1.000
    C1      C    0.33050   0.25650   0.98440   1.000
    H7      H    0.33060   0.30000   0.98080   1.000
    H8      H    0.29820   0.24470   0.99120   1.000
    H9      H    0.33030   0.23660   0.95960   1.000
    C2      C    0.38090   0.23800   0.01770   1.000
    C3      C    0.39850   0.24950   0.05760   1.000
    C4      C    0.45030   0.22640   0.07140   1.000
    C5      C    0.48830   0.22720   0.11470   1.000
    H10     H    0.48940   0.18730   0.12640   1.000
    H11     H    0.47490   0.25620   0.13020   1.000
    H12     H    0.52490   0.23870   0.11500   1.000
    C6      C    0.30690   0.19730   0.10020   1.000
    H13     H    0.33340   0.16560   0.10110   1.000
    H14     H    0.27550   0.19220   0.07650   1.000
    H15     H    0.29530   0.19490   0.12400   1.000
    C7      C    0.33350   0.25990   0.09870   1.000
    C8      C    0.37000   0.28160   0.08190   1.000
    C9      C    0.37750   0.34360   0.09260   1.000
    C10     C    0.41020   0.39000   0.07780   1.000
    H16     H    0.39090   0.40000   0.05000   1.000
    H17     H    0.44580   0.37330   0.07970   1.000
    H18     H    0.41470   0.42620   0.09410   1.000
    C11     C    0.25360   0.10590   0.96210   1.000
    H19     H    0.22940   0.13780   0.94770   1.000
    H20     H    0.28480   0.10290   0.95220   1.000
    H21     H    0.26610   0.11520   0.99060   1.000
    C12     C    0.22350   0.04730   0.95550   1.000
    C13     C    0.21900   0.01000   0.98670   1.000
    C14     C    0.18890   0.95770   0.96820   1.000
    C15     C    0.17330   0.90300   0.98590   1.000
    H22     H    0.20480   0.87650   0.99550   1.000
    H23     H    0.14440   0.88200   0.96570   1.000
    H24     H    0.16050   0.91420   0.00820   1.000
    C16     C    0.14950   0.04000   0.04800   1.000
    H25     H    0.13550   0.00040   0.05170   1.000
    H26     H    0.13370   0.05240   0.02020   1.000
    H27     H    0.13960   0.06910   0.06530   1.000
    C17     C    0.21200   0.03720   0.05860   1.000
    C18     C    0.24110   0.02310   0.03190   1.000
    C19     C    0.29470   0.02670   0.05520   1.000
    C20     C    0.34640   0.01990   0.04210   1.000
    H28     H    0.37860   0.02080   0.06570   1.000
    H29     H    0.34810   0.05300   0.02440   1.000
    H30     H    0.34500   0.98180   0.02820   1.000
    C21     C    0.23540   0.88770   0.10280   1.000
    H31     H    0.25310   0.92280   0.09560   1.000
    H32     H    0.22250   0.86110   0.07980   1.000
    H33     H    0.26140   0.86630   0.12470   1.000
    C22     C    0.18640   0.90860   0.11620   1.000
    C23     C    0.13860   0.87480   0.11260   1.000
    C24     C    0.10790   0.90920   0.12900   1.000
    C25     C    0.05440   0.90100   0.13300   1.000
    H34     H    0.05770   0.89300   0.16090   1.000
    H35     H    0.03650   0.86700   0.11660   1.000
    H36     H    0.03290   0.93730   0.12410   1.000
    C26     C    0.04060   0.82410   0.03560   1.000
    H37     H    0.00580   0.81680   0.04010   1.000
    H38     H    0.03850   0.81130   0.00870   1.000
    H39     H    0.04910   0.86700   0.03860   1.000
    C27     C    0.08590   0.78800   0.06650   1.000
    C28     C    0.12800   0.81090   0.09860   1.000
    C29     C    0.15760   0.76260   0.11530   1.000
    C30     C    0.21960   0.75600   0.14020   1.000
    H40     H    0.24110   0.74990   0.12220   1.000
    H41     H    0.23220   0.79280   0.15580   1.000
    H42     H    0.22390   0.72200   0.15820   1.000
    Na1     Na   0.43650   0.79860   0.22240   1.000
    O45     O    0.46190   0.79800   0.23180   1.000
    C31     C    0.20380   0.76100   0.15680   1.000
    H43     H    0.18780   0.76680   0.17810   1.000
    H44     H    0.22200   0.72170   0.16010   1.000
    H45     H    0.23030   0.79250   0.15780   1.000
    W16     W    0.91641   0.57051   0.26551   1.000
    W17     W    0.04286   0.56126   0.33006   1.000
    W18     W    0.00448   0.45650   0.40394   1.000
    W19     W    0.87702   0.46660   0.33947   1.000
    W20     W    0.86648   0.44468   0.19425   1.000
    W21     W    0.89960   0.34737   0.11665   1.000
    W22     W    0.82951   0.33932   0.26593   1.000
    W23     W    0.86238   0.30600   0.37403   1.000
    W24     W    0.99487   0.28979   0.42749   1.000
    W25     W    0.87708   0.14034   0.34628   1.000
    W26     W    0.84537   0.17780   0.23660   1.000
    W27     W    0.88762   0.18370   0.14278   1.000
    W28     W    0.99110   0.12363   0.09954   1.000
    W29     W    0.95245   0.03217   0.17730   1.000
    W30     W    0.91315   0.03240   0.27368   1.000
    Ni4     Ni   0.73678   0.53261   0.15200   1.000
    Ni5     Ni   0.03605   0.33931   0.53460   1.000
    Ni6     Ni   0.82928   0.94102   0.13764   1.000
    P3      P    0.97670   0.16910   0.30093   1.000
    P4      P    0.96200   0.34740   0.33129   1.000
    O46     O    0.97910   0.05990   0.13040   1.000
    O47     O    0.90900   0.97610   0.14820   1.000
    O48     O    0.02270   0.98850   0.19560   1.000
    O49     O    0.94060   0.01930   0.22520   1.000
    O50     O    0.89680   0.06230   0.31640   1.000
    O51     O    0.87120   0.09600   0.23910   1.000
    O52     O    0.98260   0.10110   0.28860   1.000
    O53     O    0.90490   0.09900   0.16370   1.000
    O54     O    0.93050   0.16680   0.10830   1.000
    O55     O    0.03180   0.20150   0.31110   1.000
    O56     O    0.86200   0.19250   0.18980   1.000
    O57     O    0.93280   0.19980   0.26550   1.000
    O58     O    0.84690   0.16750   0.29270   1.000
    O59     O    0.95670   0.16740   0.33990   1.000
    O60     O    0.82160   0.09950   0.35390   1.000
    O61     O    0.93320   0.10790   0.39230   1.000
    O62     O    0.99500   0.20810   0.42020   1.000
    O63     O    0.87090   0.21350   0.36820   1.000
    O64     O    0.83770   0.26540   0.24390   1.000
    O65     O    0.88680   0.26820   0.13540   1.000
    O66     O    0.94280   0.30480   0.08730   1.000
    O67     O    0.93470   0.42160   0.10580   1.000
    O68     O    0.87770   0.38700   0.15690   1.000
    O69     O    0.02170   0.33750   0.33300   1.000
    O70     O    0.84750   0.38260   0.22360   1.000
    O71     O    0.92160   0.33440   0.28960   1.000
    O72     O    0.83370   0.30250   0.31720   1.000
    O73     O    0.94830   0.30460   0.36300   1.000
    O74     O    0.91790   0.29550   0.42420   1.000
    O75     O    0.01960   0.29530   0.47870   1.000
    O76     O    0.98990   0.38460   0.42420   1.000
    O77     O    0.86710   0.38710   0.37190   1.000
    O78     O    0.95560   0.41530   0.34370   1.000
    O79     O    0.84290   0.41730   0.29490   1.000
    O80     O    0.95000   0.41930   0.22870   1.000
    O81     O    0.79990   0.47010   0.16710   1.000
    O82     O    0.90330   0.50370   0.16800   1.000
    O83     O    0.87540   0.50450   0.23620   1.000
    O84     O    0.98650   0.50130   0.28060   1.000
    O85     O    0.89890   0.52600   0.31230   1.000
    O86     O    0.93090   0.48920   0.39140   1.000
    O87     O    0.01720   0.52380   0.36710   1.000
    O88     O    0.97590   0.60690   0.30580   1.000
    O89     O    0.93800   0.58920   0.22260   1.000
    N13     N    0.92180   0.70980   0.00920   1.000
    H46     H    0.92030   0.69870   0.98500   1.000
    N14     N    0.96610   0.70000   0.04190   1.000
    N15     N    0.84650   0.85960   0.11620   1.000
    N16     N    0.81980   0.80630   0.11980   1.000
    H47     H    0.79720   0.80270   0.13360   1.000
    N17     N    0.67630   0.46920   0.92930   1.000
    H48     H    0.65610   0.44520   0.91090   1.000
    N18     N    0.69840   0.52360   0.92030   1.000
    N19     N    0.79450   0.53840   0.09100   1.000
    H49     H    0.82430   0.54200   0.11120   1.000
    N20     N    0.74490   0.54460   0.09460   1.000
    N21     N    0.63320   0.46240   0.13830   1.000
    H50     H    0.61990   0.49340   0.14740   1.000
    N22     N    0.68300   0.46190   0.13150   1.000
    N23     N    0.63510   0.21440   0.09460   1.000
    H51     H    0.64750   0.17790   0.10050   1.000
    N24     N    0.58980   0.22830   0.06250   1.000
    C32     C    0.83050   0.75650   0.98440   1.000
    H52     H    0.83060   0.80000   0.98080   1.000
    H53     H    0.79820   0.74470   0.99120   1.000
    H54     H    0.83030   0.73660   0.95960   1.000
    C33     C    0.88090   0.73800   0.01770   1.000
    C34     C    0.89850   0.74950   0.05760   1.000
    C35     C    0.95030   0.72640   0.07140   1.000
    C36     C    0.98830   0.72720   0.11470   1.000
    H55     H    0.98940   0.68730   0.12640   1.000
    H56     H    0.97490   0.75620   0.13020   1.000
    H57     H    0.02490   0.73870   0.11500   1.000
    C37     C    0.80690   0.69730   0.10020   1.000
    H58     H    0.83340   0.66560   0.10110   1.000
    H59     H    0.77550   0.69220   0.07650   1.000
    H60     H    0.79530   0.69490   0.12400   1.000
    C38     C    0.83350   0.75990   0.09870   1.000
    C39     C    0.87000   0.78160   0.08190   1.000
    C40     C    0.87750   0.84360   0.09260   1.000
    C41     C    0.91020   0.89000   0.07780   1.000
    H61     H    0.89090   0.90000   0.05000   1.000
    H62     H    0.94580   0.87330   0.07970   1.000
    H63     H    0.91470   0.92620   0.09410   1.000
    C42     C    0.75360   0.60590   0.96210   1.000
    H64     H    0.72940   0.63780   0.94770   1.000
    H65     H    0.78480   0.60290   0.95220   1.000
    H66     H    0.76610   0.61520   0.99060   1.000
    C43     C    0.72350   0.54730   0.95550   1.000
    C44     C    0.71900   0.51000   0.98670   1.000
    C45     C    0.68890   0.45770   0.96820   1.000
    C46     C    0.67330   0.40300   0.98590   1.000
    H67     H    0.70480   0.37650   0.99550   1.000
    H68     H    0.64440   0.38200   0.96570   1.000
    H69     H    0.66050   0.41420   0.00820   1.000
    C47     C    0.64950   0.54000   0.04800   1.000
    H70     H    0.63550   0.50040   0.05170   1.000
    H71     H    0.63370   0.55240   0.02020   1.000
    H72     H    0.63960   0.56910   0.06530   1.000
    C48     C    0.71200   0.53720   0.05860   1.000
    C49     C    0.74110   0.52310   0.03190   1.000
    C50     C    0.79470   0.52670   0.05520   1.000
    C51     C    0.84640   0.51990   0.04210   1.000
    H73     H    0.87860   0.52080   0.06570   1.000
    H74     H    0.84810   0.55300   0.02440   1.000
    H75     H    0.84500   0.48180   0.02820   1.000
    C52     C    0.73540   0.38770   0.10280   1.000
    H76     H    0.75310   0.42280   0.09560   1.000
    H77     H    0.72250   0.36110   0.07980   1.000
    H78     H    0.76140   0.36630   0.12470   1.000
    C53     C    0.68640   0.40860   0.11620   1.000
    C54     C    0.63860   0.37480   0.11260   1.000
    C55     C    0.60790   0.40920   0.12900   1.000
    C56     C    0.55440   0.40100   0.13300   1.000
    H79     H    0.55770   0.39300   0.16090   1.000
    H80     H    0.53650   0.36700   0.11660   1.000
    H81     H    0.53290   0.43730   0.12410   1.000
    C57     C    0.54060   0.32410   0.03560   1.000
    H82     H    0.50580   0.31680   0.04010   1.000
    H83     H    0.53850   0.31130   0.00870   1.000
    H84     H    0.54910   0.36700   0.03860   1.000
    C58     C    0.58590   0.28800   0.06650   1.000
    C59     C    0.62800   0.31090   0.09860   1.000
    C60     C    0.65760   0.26260   0.11530   1.000
    C61     C    0.71960   0.25600   0.14020   1.000
    H85     H    0.74110   0.24990   0.12220   1.000
    H86     H    0.73220   0.29280   0.15580   1.000
    H87     H    0.72390   0.22200   0.15820   1.000
    Na2     Na   0.93650   0.29860   0.22240   1.000
    O90     O    0.96190   0.29800   0.23180   1.000
    C62     C    0.70380   0.26100   0.15680   1.000
    H88     H    0.68780   0.26680   0.17810   1.000
    H89     H    0.72200   0.22170   0.16010   1.000
    H90     H    0.73030   0.29250   0.15780   1.000
    W31     W    0.58359   0.07051   0.23449   1.000
    W32     W    0.45714   0.06126   0.16994   1.000
    W33     W    0.49552   0.95650   0.09606   1.000
    W34     W    0.62298   0.96660   0.16053   1.000
    W35     W    0.63352   0.94468   0.30575   1.000
    W36     W    0.60040   0.84737   0.38335   1.000
    W37     W    0.67049   0.83932   0.23407   1.000
    W38     W    0.63762   0.80600   0.12597   1.000
    W39     W    0.50513   0.78979   0.07251   1.000
    W40     W    0.62292   0.64034   0.15372   1.000
    W41     W    0.65463   0.67780   0.26340   1.000
    W42     W    0.61238   0.68370   0.35722   1.000
    W43     W    0.50890   0.62363   0.40046   1.000
    W44     W    0.54755   0.53217   0.32270   1.000
    W45     W    0.58685   0.53240   0.22632   1.000
    Ni7     Ni   0.76322   0.03261   0.34800   1.000
    Ni8     Ni   0.46395   0.83931   0.96540   1.000
    Ni9     Ni   0.67072   0.44102   0.36236   1.000
    P5      P    0.52330   0.66910   0.19907   1.000
    P6      P    0.53800   0.84740   0.16871   1.000
    O91     O    0.52090   0.55990   0.36960   1.000
    O92     O    0.59100   0.47610   0.35180   1.000
    O93     O    0.47730   0.48850   0.30440   1.000
    O94     O    0.55940   0.51930   0.27480   1.000
    O95     O    0.60320   0.56230   0.18360   1.000
    O96     O    0.62880   0.59600   0.26090   1.000
    O97     O    0.51740   0.60110   0.21140   1.000
    O98     O    0.59510   0.59900   0.33630   1.000
    O99     O    0.56950   0.66680   0.39170   1.000
    O100    O    0.46820   0.70150   0.18890   1.000
    O101    O    0.63800   0.69250   0.31020   1.000
    O102    O    0.56720   0.69980   0.23450   1.000
    O103    O    0.65310   0.66750   0.20730   1.000
    O104    O    0.54330   0.66740   0.16010   1.000
    O105    O    0.67840   0.59950   0.14610   1.000
    O106    O    0.56680   0.60790   0.10770   1.000
    O107    O    0.50500   0.70810   0.07980   1.000
    O108    O    0.62910   0.71350   0.13180   1.000
    O109    O    0.66230   0.76540   0.25610   1.000
    O110    O    0.61320   0.76820   0.36460   1.000
    O111    O    0.55720   0.80480   0.41270   1.000
    O112    O    0.56530   0.92160   0.39420   1.000
    O113    O    0.62230   0.88700   0.34310   1.000
    O114    O    0.47830   0.83750   0.16700   1.000
    O115    O    0.65250   0.88260   0.27640   1.000
    O116    O    0.57840   0.83440   0.21040   1.000
    O117    O    0.66630   0.80250   0.18280   1.000
    O118    O    0.55170   0.80460   0.13700   1.000
    O119    O    0.58210   0.79550   0.07580   1.000
    O120    O    0.48040   0.79530   0.02130   1.000
    O121    O    0.51010   0.88460   0.07580   1.000
    O122    O    0.63290   0.88710   0.12810   1.000
    O123    O    0.54440   0.91530   0.15630   1.000
    O124    O    0.65710   0.91730   0.20510   1.000
    O125    O    0.55000   0.91930   0.27130   1.000
    O126    O    0.70010   0.97010   0.33290   1.000
    O127    O    0.59670   0.00370   0.33200   1.000
    O128    O    0.62460   0.00450   0.26380   1.000
    O129    O    0.51350   0.00130   0.21940   1.000
    O130    O    0.60110   0.02600   0.18770   1.000
    O131    O    0.56910   0.98920   0.10860   1.000
    O132    O    0.48280   0.02380   0.13290   1.000
    O133    O    0.52410   0.10690   0.19420   1.000
    O134    O    0.56200   0.08920   0.27740   1.000
    N25     N    0.57820   0.20980   0.49080   1.000
    H91     H    0.57970   0.19870   0.51500   1.000
    N26     N    0.53390   0.20000   0.45810   1.000
    N27     N    0.65350   0.35960   0.38380   1.000
    N28     N    0.68020   0.30630   0.38020   1.000
    H92     H    0.70280   0.30270   0.36640   1.000
    N29     N    0.82370   0.96920   0.57070   1.000
    H93     H    0.84390   0.94520   0.58910   1.000
    N30     N    0.80160   0.02360   0.57970   1.000
    N31     N    0.70550   0.03840   0.40900   1.000
    H94     H    0.67570   0.04200   0.38880   1.000
    N32     N    0.75510   0.04460   0.40540   1.000
    N33     N    0.86680   0.96240   0.36170   1.000
    H95     H    0.88010   0.99340   0.35260   1.000
    N34     N    0.81700   0.96190   0.36850   1.000
    N35     N    0.86490   0.71440   0.40540   1.000
    H96     H    0.85250   0.67790   0.39950   1.000
    N36     N    0.91020   0.72830   0.43750   1.000
    C63     C    0.66950   0.25650   0.51560   1.000
    H97     H    0.66940   0.30000   0.51920   1.000
    H98     H    0.70180   0.24470   0.50880   1.000
    H99     H    0.66970   0.23660   0.54040   1.000
    C64     C    0.61910   0.23800   0.48230   1.000
    C65     C    0.60150   0.24950   0.44240   1.000
    C66     C    0.54970   0.22640   0.42860   1.000
    C67     C    0.51170   0.22720   0.38530   1.000
    H100    H    0.51060   0.18730   0.37360   1.000
    H101    H    0.52510   0.25620   0.36980   1.000
    H102    H    0.47510   0.23870   0.38500   1.000
    C68     C    0.69310   0.19730   0.39980   1.000
    H103    H    0.66660   0.16560   0.39890   1.000
    H104    H    0.72450   0.19220   0.42350   1.000
    H105    H    0.70470   0.19490   0.37600   1.000
    C69     C    0.66650   0.25990   0.40130   1.000
    C70     C    0.63000   0.28160   0.41810   1.000
    C71     C    0.62250   0.34360   0.40740   1.000
    C72     C    0.58980   0.39000   0.42220   1.000
    H106    H    0.60910   0.40000   0.45000   1.000
    H107    H    0.55420   0.37330   0.42030   1.000
    H108    H    0.58530   0.42620   0.40590   1.000
    C73     C    0.74640   0.10590   0.53790   1.000
    H109    H    0.77060   0.13780   0.55230   1.000
    H110    H    0.71520   0.10290   0.54780   1.000
    H111    H    0.73390   0.11520   0.50940   1.000
    C74     C    0.77650   0.04730   0.54450   1.000
    C75     C    0.78100   0.01000   0.51330   1.000
    C76     C    0.81110   0.95770   0.53180   1.000
    C77     C    0.82670   0.90300   0.51410   1.000
    H112    H    0.79520   0.87650   0.50450   1.000
    H113    H    0.85560   0.88200   0.53430   1.000
    H114    H    0.83950   0.91420   0.49180   1.000
    C78     C    0.85050   0.04000   0.45200   1.000
    H115    H    0.86450   0.00040   0.44830   1.000
    H116    H    0.86630   0.05240   0.47980   1.000
    H117    H    0.86040   0.06910   0.43470   1.000
    C79     C    0.78800   0.03720   0.44140   1.000
    C80     C    0.75890   0.02310   0.46810   1.000
    C81     C    0.70530   0.02670   0.44480   1.000
    C82     C    0.65360   0.01990   0.45790   1.000
    H118    H    0.62140   0.02080   0.43430   1.000
    H119    H    0.65190   0.05300   0.47560   1.000
    H120    H    0.65500   0.98180   0.47180   1.000
    C83     C    0.76460   0.88770   0.39720   1.000
    H121    H    0.74690   0.92280   0.40440   1.000
    H122    H    0.77750   0.86110   0.42020   1.000
    H123    H    0.73860   0.86630   0.37530   1.000
    C84     C    0.81360   0.90860   0.38380   1.000
    C85     C    0.86140   0.87480   0.38740   1.000
    C86     C    0.89210   0.90920   0.37100   1.000
    C87     C    0.94560   0.90100   0.36700   1.000
    H124    H    0.94230   0.89300   0.33910   1.000
    H125    H    0.96350   0.86700   0.38340   1.000
    H126    H    0.96710   0.93730   0.37590   1.000
    C88     C    0.95940   0.82410   0.46440   1.000
    H127    H    0.99420   0.81680   0.45990   1.000
    H128    H    0.96150   0.81130   0.49130   1.000
    H129    H    0.95090   0.86700   0.46140   1.000
    C89     C    0.91410   0.78800   0.43350   1.000
    C90     C    0.87200   0.81090   0.40140   1.000
    C91     C    0.84240   0.76260   0.38470   1.000
    C92     C    0.78040   0.75600   0.35980   1.000
    H130    H    0.75890   0.74990   0.37780   1.000
    H131    H    0.76780   0.79280   0.34420   1.000
    H132    H    0.77610   0.72200   0.34180   1.000
    Na3     Na   0.56350   0.79860   0.27760   1.000
    O135    O    0.53810   0.79800   0.26820   1.000
    C93     C    0.79620   0.76100   0.34320   1.000
    H133    H    0.81220   0.76680   0.32190   1.000
    H134    H    0.77800   0.72170   0.33990   1.000
    H135    H    0.76970   0.79250   0.34220   1.000
    W46     W    0.08359   0.57051   0.23449   1.000
    W47     W    0.95714   0.56126   0.16994   1.000
    W48     W    0.99552   0.45650   0.09606   1.000
    W49     W    0.12298   0.46660   0.16053   1.000
    W50     W    0.13352   0.44468   0.30575   1.000
    W51     W    0.10040   0.34737   0.38335   1.000
    W52     W    0.17049   0.33932   0.23407   1.000
    W53     W    0.13762   0.30600   0.12597   1.000
    W54     W    0.00513   0.28979   0.07251   1.000
    W55     W    0.12292   0.14034   0.15372   1.000
    W56     W    0.15463   0.17780   0.26340   1.000
    W57     W    0.11238   0.18370   0.35722   1.000
    W58     W    0.00890   0.12363   0.40046   1.000
    W59     W    0.04755   0.03217   0.32270   1.000
    W60     W    0.08685   0.03240   0.22632   1.000
    Ni10    Ni   0.26322   0.53261   0.34800   1.000
    Ni11    Ni   0.96395   0.33931   0.96540   1.000
    Ni12    Ni   0.17072   0.94102   0.36236   1.000
    P7      P    0.02330   0.16910   0.19907   1.000
    P8      P    0.03800   0.34740   0.16871   1.000
    O136    O    0.02090   0.05990   0.36960   1.000
    O137    O    0.09100   0.97610   0.35180   1.000
    O138    O    0.97730   0.98850   0.30440   1.000
    O139    O    0.05940   0.01930   0.27480   1.000
    O140    O    0.10320   0.06230   0.18360   1.000
    O141    O    0.12880   0.09600   0.26090   1.000
    O142    O    0.01740   0.10110   0.21140   1.000
    O143    O    0.09510   0.09900   0.33630   1.000
    O144    O    0.06950   0.16680   0.39170   1.000
    O145    O    0.96820   0.20150   0.18890   1.000
    O146    O    0.13800   0.19250   0.31020   1.000
    O147    O    0.06720   0.19980   0.23450   1.000
    O148    O    0.15310   0.16750   0.20730   1.000
    O149    O    0.04330   0.16740   0.16010   1.000
    O150    O    0.17840   0.09950   0.14610   1.000
    O151    O    0.06680   0.10790   0.10770   1.000
    O152    O    0.00500   0.20810   0.07980   1.000
    O153    O    0.12910   0.21350   0.13180   1.000
    O154    O    0.16230   0.26540   0.25610   1.000
    O155    O    0.11320   0.26820   0.36460   1.000
    O156    O    0.05720   0.30480   0.41270   1.000
    O157    O    0.06530   0.42160   0.39420   1.000
    O158    O    0.12230   0.38700   0.34310   1.000
    O159    O    0.97830   0.33750   0.16700   1.000
    O160    O    0.15250   0.38260   0.27640   1.000
    O161    O    0.07840   0.33440   0.21040   1.000
    O162    O    0.16630   0.30250   0.18280   1.000
    O163    O    0.05170   0.30460   0.13700   1.000
    O164    O    0.08210   0.29550   0.07580   1.000
    O165    O    0.98040   0.29530   0.02130   1.000
    O166    O    0.01010   0.38460   0.07580   1.000
    O167    O    0.13290   0.38710   0.12810   1.000
    O168    O    0.04440   0.41530   0.15630   1.000
    O169    O    0.15710   0.41730   0.20510   1.000
    O170    O    0.05000   0.41930   0.27130   1.000
    O171    O    0.20010   0.47010   0.33290   1.000
    O172    O    0.09670   0.50370   0.33200   1.000
    O173    O    0.12460   0.50450   0.26380   1.000
    O174    O    0.01350   0.50130   0.21940   1.000
    O175    O    0.10110   0.52600   0.18770   1.000
    O176    O    0.06910   0.48920   0.10860   1.000
    O177    O    0.98280   0.52380   0.13290   1.000
    O178    O    0.02410   0.60690   0.19420   1.000
    O179    O    0.06200   0.58920   0.27740   1.000
    N37     N    0.07820   0.70980   0.49080   1.000
    H136    H    0.07970   0.69870   0.51500   1.000
    N38     N    0.03390   0.70000   0.45810   1.000
    N39     N    0.15350   0.85960   0.38380   1.000
    N40     N    0.18020   0.80630   0.38020   1.000
    H137    H    0.20280   0.80270   0.36640   1.000
    N41     N    0.32370   0.46920   0.57070   1.000
    H138    H    0.34390   0.44520   0.58910   1.000
    N42     N    0.30160   0.52360   0.57970   1.000
    N43     N    0.20550   0.53840   0.40900   1.000
    H139    H    0.17570   0.54200   0.38880   1.000
    N44     N    0.25510   0.54460   0.40540   1.000
    N45     N    0.36680   0.46240   0.36170   1.000
    H140    H    0.38010   0.49340   0.35260   1.000
    N46     N    0.31700   0.46190   0.36850   1.000
    N47     N    0.36490   0.21440   0.40540   1.000
    H141    H    0.35250   0.17790   0.39950   1.000
    N48     N    0.41020   0.22830   0.43750   1.000
    C94     C    0.16950   0.75650   0.51560   1.000
    H142    H    0.16940   0.80000   0.51920   1.000
    H143    H    0.20180   0.74470   0.50880   1.000
    H144    H    0.16970   0.73660   0.54040   1.000
    C95     C    0.11910   0.73800   0.48230   1.000
    C96     C    0.10150   0.74950   0.44240   1.000
    C97     C    0.04970   0.72640   0.42860   1.000
    C98     C    0.01170   0.72720   0.38530   1.000
    H145    H    0.01060   0.68730   0.37360   1.000
    H146    H    0.02510   0.75620   0.36980   1.000
    H147    H    0.97510   0.73870   0.38500   1.000
    C99     C    0.19310   0.69730   0.39980   1.000
    H148    H    0.16660   0.66560   0.39890   1.000
    H149    H    0.22450   0.69220   0.42350   1.000
    H150    H    0.20470   0.69490   0.37600   1.000
    C100    C    0.16650   0.75990   0.40130   1.000
    C101    C    0.13000   0.78160   0.41810   1.000
    C102    C    0.12250   0.84360   0.40740   1.000
    C103    C    0.08980   0.89000   0.42220   1.000
    H151    H    0.10910   0.90000   0.45000   1.000
    H152    H    0.05420   0.87330   0.42030   1.000
    H153    H    0.08530   0.92620   0.40590   1.000
    C104    C    0.24640   0.60590   0.53790   1.000
    H154    H    0.27060   0.63780   0.55230   1.000
    H155    H    0.21520   0.60290   0.54780   1.000
    H156    H    0.23390   0.61520   0.50940   1.000
    C105    C    0.27650   0.54730   0.54450   1.000
    C106    C    0.28100   0.51000   0.51330   1.000
    C107    C    0.31110   0.45770   0.53180   1.000
    C108    C    0.32670   0.40300   0.51410   1.000
    H157    H    0.29520   0.37650   0.50450   1.000
    H158    H    0.35560   0.38200   0.53430   1.000
    H159    H    0.33950   0.41420   0.49180   1.000
    C109    C    0.35050   0.54000   0.45200   1.000
    H160    H    0.36450   0.50040   0.44830   1.000
    H161    H    0.36630   0.55240   0.47980   1.000
    H162    H    0.36040   0.56910   0.43470   1.000
    C110    C    0.28800   0.53720   0.44140   1.000
    C111    C    0.25890   0.52310   0.46810   1.000
    C112    C    0.20530   0.52670   0.44480   1.000
    C113    C    0.15360   0.51990   0.45790   1.000
    H163    H    0.12140   0.52080   0.43430   1.000
    H164    H    0.15190   0.55300   0.47560   1.000
    H165    H    0.15500   0.48180   0.47180   1.000
    C114    C    0.26460   0.38770   0.39720   1.000
    H166    H    0.24690   0.42280   0.40440   1.000
    H167    H    0.27750   0.36110   0.42020   1.000
    H168    H    0.23860   0.36630   0.37530   1.000
    C115    C    0.31360   0.40860   0.38380   1.000
    C116    C    0.36140   0.37480   0.38740   1.000
    C117    C    0.39210   0.40920   0.37100   1.000
    C118    C    0.44560   0.40100   0.36700   1.000
    H169    H    0.44230   0.39300   0.33910   1.000
    H170    H    0.46350   0.36700   0.38340   1.000
    H171    H    0.46710   0.43730   0.37590   1.000
    C119    C    0.45940   0.32410   0.46440   1.000
    H172    H    0.49420   0.31680   0.45990   1.000
    H173    H    0.46150   0.31130   0.49130   1.000
    H174    H    0.45090   0.36700   0.46140   1.000
    C120    C    0.41410   0.28800   0.43350   1.000
    C121    C    0.37200   0.31090   0.40140   1.000
    C122    C    0.34240   0.26260   0.38470   1.000
    C123    C    0.28040   0.25600   0.35980   1.000
    H175    H    0.25890   0.24990   0.37780   1.000
    H176    H    0.26780   0.29280   0.34420   1.000
    H177    H    0.27610   0.22200   0.34180   1.000
    Na4     Na   0.06350   0.29860   0.27760   1.000
    O180    O    0.03810   0.29800   0.26820   1.000
    C124    C    0.29620   0.26100   0.34320   1.000
    H178    H    0.31220   0.26680   0.32190   1.000
    H179    H    0.27800   0.22170   0.33990   1.000
    H180    H    0.26970   0.29250   0.34220   1.000
    W61     W    0.58359   0.92949   0.73449   1.000
    W62     W    0.45714   0.93874   0.66994   1.000
    W63     W    0.49552   0.04350   0.59606   1.000
    W64     W    0.62298   0.03340   0.66053   1.000
    W65     W    0.63352   0.05532   0.80575   1.000
    W66     W    0.60040   0.15263   0.88335   1.000
    W67     W    0.67049   0.16068   0.73407   1.000
    W68     W    0.63762   0.19400   0.62597   1.000
    W69     W    0.50513   0.21021   0.57251   1.000
    W70     W    0.62292   0.35966   0.65372   1.000
    W71     W    0.65463   0.32220   0.76340   1.000
    W72     W    0.61238   0.31630   0.85722   1.000
    W73     W    0.50890   0.37637   0.90046   1.000
    W74     W    0.54755   0.46783   0.82270   1.000
    W75     W    0.58685   0.46760   0.72632   1.000
    Ni13    Ni   0.76322   0.96739   0.84800   1.000
    Ni14    Ni   0.46395   0.16069   0.46540   1.000
    Ni15    Ni   0.67072   0.55898   0.86236   1.000
    P9      P    0.52330   0.33090   0.69907   1.000
    P10     P    0.53800   0.15260   0.66871   1.000
    O181    O    0.52090   0.44010   0.86960   1.000
    O182    O    0.59100   0.52390   0.85180   1.000
    O183    O    0.47730   0.51150   0.80440   1.000
    O184    O    0.55940   0.48070   0.77480   1.000
    O185    O    0.60320   0.43770   0.68360   1.000
    O186    O    0.62880   0.40400   0.76090   1.000
    O187    O    0.51740   0.39890   0.71140   1.000
    O188    O    0.59510   0.40100   0.83630   1.000
    O189    O    0.56950   0.33320   0.89170   1.000
    O190    O    0.46820   0.29850   0.68890   1.000
    O191    O    0.63800   0.30750   0.81020   1.000
    O192    O    0.56720   0.30020   0.73450   1.000
    O193    O    0.65310   0.33250   0.70730   1.000
    O194    O    0.54330   0.33260   0.66010   1.000
    O195    O    0.67840   0.40050   0.64610   1.000
    O196    O    0.56680   0.39210   0.60770   1.000
    O197    O    0.50500   0.29190   0.57980   1.000
    O198    O    0.62910   0.28650   0.63180   1.000
    O199    O    0.66230   0.23460   0.75610   1.000
    O200    O    0.61320   0.23180   0.86460   1.000
    O201    O    0.55720   0.19520   0.91270   1.000
    O202    O    0.56530   0.07840   0.89420   1.000
    O203    O    0.62230   0.11300   0.84310   1.000
    O204    O    0.47830   0.16250   0.66700   1.000
    O205    O    0.65250   0.11740   0.77640   1.000
    O206    O    0.57840   0.16560   0.71040   1.000
    O207    O    0.66630   0.19750   0.68280   1.000
    O208    O    0.55170   0.19540   0.63700   1.000
    O209    O    0.58210   0.20450   0.57580   1.000
    O210    O    0.48040   0.20470   0.52130   1.000
    O211    O    0.51010   0.11540   0.57580   1.000
    O212    O    0.63290   0.11290   0.62810   1.000
    O213    O    0.54440   0.08470   0.65630   1.000
    O214    O    0.65710   0.08270   0.70510   1.000
    O215    O    0.55000   0.08070   0.77130   1.000
    O216    O    0.70010   0.02990   0.83290   1.000
    O217    O    0.59670   0.99630   0.83200   1.000
    O218    O    0.62460   0.99550   0.76380   1.000
    O219    O    0.51350   0.99870   0.71940   1.000
    O220    O    0.60110   0.97400   0.68770   1.000
    O221    O    0.56910   0.01080   0.60860   1.000
    O222    O    0.48280   0.97620   0.63290   1.000
    O223    O    0.52410   0.89310   0.69420   1.000
    O224    O    0.56200   0.91080   0.77740   1.000
    N49     N    0.57820   0.79020   0.99080   1.000
    H181    H    0.57970   0.80130   0.01500   1.000
    N50     N    0.53390   0.80000   0.95810   1.000
    N51     N    0.65350   0.64040   0.88380   1.000
    N52     N    0.68020   0.69370   0.88020   1.000
    H182    H    0.70280   0.69730   0.86640   1.000
    N53     N    0.82370   0.03080   0.07070   1.000
    H183    H    0.84390   0.05480   0.08910   1.000
    N54     N    0.80160   0.97640   0.07970   1.000
    N55     N    0.70550   0.96160   0.90900   1.000
    H184    H    0.67570   0.95800   0.88880   1.000
    N56     N    0.75510   0.95540   0.90540   1.000
    N57     N    0.86680   0.03760   0.86170   1.000
    H185    H    0.88010   0.00660   0.85260   1.000
    N58     N    0.81700   0.03810   0.86850   1.000
    N59     N    0.86490   0.28560   0.90540   1.000
    H186    H    0.85250   0.32210   0.89950   1.000
    N60     N    0.91020   0.27170   0.93750   1.000
    C125    C    0.66950   0.74350   0.01560   1.000
    H187    H    0.66940   0.70000   0.01920   1.000
    H188    H    0.70180   0.75530   0.00880   1.000
    H189    H    0.66970   0.76340   0.04040   1.000
    C126    C    0.61910   0.76200   0.98230   1.000
    C127    C    0.60150   0.75050   0.94240   1.000
    C128    C    0.54970   0.77360   0.92860   1.000
    C129    C    0.51170   0.77280   0.88530   1.000
    H190    H    0.51060   0.81270   0.87360   1.000
    H191    H    0.52510   0.74380   0.86980   1.000
    H192    H    0.47510   0.76130   0.88500   1.000
    C130    C    0.69310   0.80270   0.89980   1.000
    H193    H    0.66660   0.83440   0.89890   1.000
    H194    H    0.72450   0.80780   0.92350   1.000
    H195    H    0.70470   0.80510   0.87600   1.000
    C131    C    0.66650   0.74010   0.90130   1.000
    C132    C    0.63000   0.71840   0.91810   1.000
    C133    C    0.62250   0.65640   0.90740   1.000
    C134    C    0.58980   0.61000   0.92220   1.000
    H196    H    0.60910   0.60000   0.95000   1.000
    H197    H    0.55420   0.62670   0.92030   1.000
    H198    H    0.58530   0.57380   0.90590   1.000
    C135    C    0.74640   0.89410   0.03790   1.000
    H199    H    0.77060   0.86220   0.05230   1.000
    H200    H    0.71520   0.89710   0.04780   1.000
    H201    H    0.73390   0.88480   0.00940   1.000
    C136    C    0.77650   0.95270   0.04450   1.000
    C137    C    0.78100   0.99000   0.01330   1.000
    C138    C    0.81110   0.04230   0.03180   1.000
    C139    C    0.82670   0.09700   0.01410   1.000
    H202    H    0.79520   0.12350   0.00450   1.000
    H203    H    0.85560   0.11800   0.03430   1.000
    H204    H    0.83950   0.08580   0.99180   1.000
    C140    C    0.85050   0.96000   0.95200   1.000
    H205    H    0.86450   0.99960   0.94830   1.000
    H206    H    0.86630   0.94760   0.97980   1.000
    H207    H    0.86040   0.93090   0.93470   1.000
    C141    C    0.78800   0.96280   0.94140   1.000
    C142    C    0.75890   0.97690   0.96810   1.000
    C143    C    0.70530   0.97330   0.94480   1.000
    C144    C    0.65360   0.98010   0.95790   1.000
    H208    H    0.62140   0.97920   0.93430   1.000
    H209    H    0.65190   0.94700   0.97560   1.000
    H210    H    0.65500   0.01820   0.97180   1.000
    C145    C    0.76460   0.11230   0.89720   1.000
    H211    H    0.74690   0.07720   0.90440   1.000
    H212    H    0.77750   0.13890   0.92020   1.000
    H213    H    0.73860   0.13370   0.87530   1.000
    C146    C    0.81360   0.09140   0.88380   1.000
    C147    C    0.86140   0.12520   0.88740   1.000
    C148    C    0.89210   0.09080   0.87100   1.000
    C149    C    0.94560   0.09900   0.86700   1.000
    H214    H    0.94230   0.10700   0.83910   1.000
    H215    H    0.96350   0.13300   0.88340   1.000
    H216    H    0.96710   0.06270   0.87590   1.000
    C150    C    0.95940   0.17590   0.96440   1.000
    H217    H    0.99420   0.18320   0.95990   1.000
    H218    H    0.96150   0.18870   0.99130   1.000
    H219    H    0.95090   0.13300   0.96140   1.000
    C151    C    0.91410   0.21200   0.93350   1.000
    C152    C    0.87200   0.18910   0.90140   1.000
    C153    C    0.84240   0.23740   0.88470   1.000
    C154    C    0.78040   0.24400   0.85980   1.000
    H220    H    0.75890   0.25010   0.87780   1.000
    H221    H    0.76780   0.20720   0.84420   1.000
    H222    H    0.77610   0.27800   0.84180   1.000
    Na5     Na   0.56350   0.20140   0.77760   1.000
    O225    O    0.53810   0.20200   0.76820   1.000
    C155    C    0.79620   0.23900   0.84320   1.000
    H223    H    0.81220   0.23320   0.82190   1.000
    H224    H    0.77800   0.27830   0.83990   1.000
    H225    H    0.76970   0.20750   0.84220   1.000
    W76     W    0.08359   0.42949   0.73449   1.000
    W77     W    0.95714   0.43874   0.66994   1.000
    W78     W    0.99552   0.54350   0.59606   1.000
    W79     W    0.12298   0.53340   0.66053   1.000
    W80     W    0.13352   0.55532   0.80575   1.000
    W81     W    0.10040   0.65263   0.88335   1.000
    W82     W    0.17049   0.66068   0.73407   1.000
    W83     W    0.13762   0.69400   0.62597   1.000
    W84     W    0.00513   0.71021   0.57251   1.000
    W85     W    0.12292   0.85966   0.65372   1.000
    W86     W    0.15463   0.82220   0.76340   1.000
    W87     W    0.11238   0.81630   0.85722   1.000
    W88     W    0.00890   0.87637   0.90046   1.000
    W89     W    0.04755   0.96783   0.82270   1.000
    W90     W    0.08685   0.96760   0.72632   1.000
    Ni16    Ni   0.26322   0.46739   0.84800   1.000
    Ni17    Ni   0.96395   0.66069   0.46540   1.000
    Ni18    Ni   0.17072   0.05898   0.86236   1.000
    P11     P    0.02330   0.83090   0.69907   1.000
    P12     P    0.03800   0.65260   0.66871   1.000
    O226    O    0.02090   0.94010   0.86960   1.000
    O227    O    0.09100   0.02390   0.85180   1.000
    O228    O    0.97730   0.01150   0.80440   1.000
    O229    O    0.05940   0.98070   0.77480   1.000
    O230    O    0.10320   0.93770   0.68360   1.000
    O231    O    0.12880   0.90400   0.76090   1.000
    O232    O    0.01740   0.89890   0.71140   1.000
    O233    O    0.09510   0.90100   0.83630   1.000
    O234    O    0.06950   0.83320   0.89170   1.000
    O235    O    0.96820   0.79850   0.68890   1.000
    O236    O    0.13800   0.80750   0.81020   1.000
    O237    O    0.06720   0.80020   0.73450   1.000
    O238    O    0.15310   0.83250   0.70730   1.000
    O239    O    0.04330   0.83260   0.66010   1.000
    O240    O    0.17840   0.90050   0.64610   1.000
    O241    O    0.06680   0.89210   0.60770   1.000
    O242    O    0.00500   0.79190   0.57980   1.000
    O243    O    0.12910   0.78650   0.63180   1.000
    O244    O    0.16230   0.73460   0.75610   1.000
    O245    O    0.11320   0.73180   0.86460   1.000
    O246    O    0.05720   0.69520   0.91270   1.000
    O247    O    0.06530   0.57840   0.89420   1.000
    O248    O    0.12230   0.61300   0.84310   1.000
    O249    O    0.97830   0.66250   0.66700   1.000
    O250    O    0.15250   0.61740   0.77640   1.000
    O251    O    0.07840   0.66560   0.71040   1.000
    O252    O    0.16630   0.69750   0.68280   1.000
    O253    O    0.05170   0.69540   0.63700   1.000
    O254    O    0.08210   0.70450   0.57580   1.000
    O255    O    0.98040   0.70470   0.52130   1.000
    O256    O    0.01010   0.61540   0.57580   1.000
    O257    O    0.13290   0.61290   0.62810   1.000
    O258    O    0.04440   0.58470   0.65630   1.000
    O259    O    0.15710   0.58270   0.70510   1.000
    O260    O    0.05000   0.58070   0.77130   1.000
    O261    O    0.20010   0.52990   0.83290   1.000
    O262    O    0.09670   0.49630   0.83200   1.000
    O263    O    0.12460   0.49550   0.76380   1.000
    O264    O    0.01350   0.49870   0.71940   1.000
    O265    O    0.10110   0.47400   0.68770   1.000
    O266    O    0.06910   0.51080   0.60860   1.000
    O267    O    0.98280   0.47620   0.63290   1.000
    O268    O    0.02410   0.39310   0.69420   1.000
    O269    O    0.06200   0.41080   0.77740   1.000
    N61     N    0.07820   0.29020   0.99080   1.000
    H226    H    0.07970   0.30130   0.01500   1.000
    N62     N    0.03390   0.30000   0.95810   1.000
    N63     N    0.15350   0.14040   0.88380   1.000
    N64     N    0.18020   0.19370   0.88020   1.000
    H227    H    0.20280   0.19730   0.86640   1.000
    N65     N    0.32370   0.53080   0.07070   1.000
    H228    H    0.34390   0.55480   0.08910   1.000
    N66     N    0.30160   0.47640   0.07970   1.000
    N67     N    0.20550   0.46160   0.90900   1.000
    H229    H    0.17570   0.45800   0.88880   1.000
    N68     N    0.25510   0.45540   0.90540   1.000
    N69     N    0.36680   0.53760   0.86170   1.000
    H230    H    0.38010   0.50660   0.85260   1.000
    N70     N    0.31700   0.53810   0.86850   1.000
    N71     N    0.36490   0.78560   0.90540   1.000
    H231    H    0.35250   0.82210   0.89950   1.000
    N72     N    0.41020   0.77170   0.93750   1.000
    C156    C    0.16950   0.24350   0.01560   1.000
    H232    H    0.16940   0.20000   0.01920   1.000
    H233    H    0.20180   0.25530   0.00880   1.000
    H234    H    0.16970   0.26340   0.04040   1.000
    C157    C    0.11910   0.26200   0.98230   1.000
    C158    C    0.10150   0.25050   0.94240   1.000
    C159    C    0.04970   0.27360   0.92860   1.000
    C160    C    0.01170   0.27280   0.88530   1.000
    H235    H    0.01060   0.31270   0.87360   1.000
    H236    H    0.02510   0.24380   0.86980   1.000
    H237    H    0.97510   0.26130   0.88500   1.000
    C161    C    0.19310   0.30270   0.89980   1.000
    H238    H    0.16660   0.33440   0.89890   1.000
    H239    H    0.22450   0.30780   0.92350   1.000
    H240    H    0.20470   0.30510   0.87600   1.000
    C162    C    0.16650   0.24010   0.90130   1.000
    C163    C    0.13000   0.21840   0.91810   1.000
    C164    C    0.12250   0.15640   0.90740   1.000
    C165    C    0.08980   0.11000   0.92220   1.000
    H241    H    0.10910   0.10000   0.95000   1.000
    H242    H    0.05420   0.12670   0.92030   1.000
    H243    H    0.08530   0.07380   0.90590   1.000
    C166    C    0.24640   0.39410   0.03790   1.000
    H244    H    0.27060   0.36220   0.05230   1.000
    H245    H    0.21520   0.39710   0.04780   1.000
    H246    H    0.23390   0.38480   0.00940   1.000
    C167    C    0.27650   0.45270   0.04450   1.000
    C168    C    0.28100   0.49000   0.01330   1.000
    C169    C    0.31110   0.54230   0.03180   1.000
    C170    C    0.32670   0.59700   0.01410   1.000
    H247    H    0.29520   0.62350   0.00450   1.000
    H248    H    0.35560   0.61800   0.03430   1.000
    H249    H    0.33950   0.58580   0.99180   1.000
    C171    C    0.35050   0.46000   0.95200   1.000
    H250    H    0.36450   0.49960   0.94830   1.000
    H251    H    0.36630   0.44760   0.97980   1.000
    H252    H    0.36040   0.43090   0.93470   1.000
    C172    C    0.28800   0.46280   0.94140   1.000
    C173    C    0.25890   0.47690   0.96810   1.000
    C174    C    0.20530   0.47330   0.94480   1.000
    C175    C    0.15360   0.48010   0.95790   1.000
    H253    H    0.12140   0.47920   0.93430   1.000
    H254    H    0.15190   0.44700   0.97560   1.000
    H255    H    0.15500   0.51820   0.97180   1.000
    C176    C    0.26460   0.61230   0.89720   1.000
    H256    H    0.24690   0.57720   0.90440   1.000
    H257    H    0.27750   0.63890   0.92020   1.000
    H258    H    0.23860   0.63370   0.87530   1.000
    C177    C    0.31360   0.59140   0.88380   1.000
    C178    C    0.36140   0.62520   0.88740   1.000
    C179    C    0.39210   0.59080   0.87100   1.000
    C180    C    0.44560   0.59900   0.86700   1.000
    H259    H    0.44230   0.60700   0.83910   1.000
    H260    H    0.46350   0.63300   0.88340   1.000
    H261    H    0.46710   0.56270   0.87590   1.000
    C181    C    0.45940   0.67590   0.96440   1.000
    H262    H    0.49420   0.68320   0.95990   1.000
    H263    H    0.46150   0.68870   0.99130   1.000
    H264    H    0.45090   0.63300   0.96140   1.000
    C182    C    0.41410   0.71200   0.93350   1.000
    C183    C    0.37200   0.68910   0.90140   1.000
    C184    C    0.34240   0.73740   0.88470   1.000
    C185    C    0.28040   0.74400   0.85980   1.000
    H265    H    0.25890   0.75010   0.87780   1.000
    H266    H    0.26780   0.70720   0.84420   1.000
    H267    H    0.27610   0.77800   0.84180   1.000
    Na6     Na   0.06350   0.70140   0.77760   1.000
    O270    O    0.03810   0.70200   0.76820   1.000
    C186    C    0.29620   0.73900   0.84320   1.000
    H268    H    0.31220   0.73320   0.82190   1.000
    H269    H    0.27800   0.77830   0.83990   1.000
    H270    H    0.26970   0.70750   0.84220   1.000
    W91     W    0.41641   0.92949   0.76551   1.000
    W92     W    0.54286   0.93874   0.83006   1.000
    W93     W    0.50448   0.04350   0.90394   1.000
    W94     W    0.37702   0.03340   0.83947   1.000
    W95     W    0.36648   0.05532   0.69425   1.000
    W96     W    0.39960   0.15263   0.61665   1.000
    W97     W    0.32951   0.16068   0.76593   1.000
    W98     W    0.36238   0.19400   0.87403   1.000
    W99     W    0.49487   0.21021   0.92749   1.000
    W100    W    0.37708   0.35966   0.84628   1.000
    W101    W    0.34537   0.32220   0.73660   1.000
    W102    W    0.38762   0.31630   0.64278   1.000
    W103    W    0.49110   0.37637   0.59954   1.000
    W104    W    0.45245   0.46783   0.67730   1.000
    W105    W    0.41315   0.46760   0.77368   1.000
    Ni19    Ni   0.23678   0.96739   0.65200   1.000
    Ni20    Ni   0.53605   0.16069   0.03460   1.000
    Ni21    Ni   0.32928   0.55898   0.63764   1.000
    P13     P    0.47670   0.33090   0.80093   1.000
    P14     P    0.46200   0.15260   0.83129   1.000
    O271    O    0.47910   0.44010   0.63040   1.000
    O272    O    0.40900   0.52390   0.64820   1.000
    O273    O    0.52270   0.51150   0.69560   1.000
    O274    O    0.44060   0.48070   0.72520   1.000
    O275    O    0.39680   0.43770   0.81640   1.000
    O276    O    0.37120   0.40400   0.73910   1.000
    O277    O    0.48260   0.39890   0.78860   1.000
    O278    O    0.40490   0.40100   0.66370   1.000
    O279    O    0.43050   0.33320   0.60830   1.000
    O280    O    0.53180   0.29850   0.81110   1.000
    O281    O    0.36200   0.30750   0.68980   1.000
    O282    O    0.43280   0.30020   0.76550   1.000
    O283    O    0.34690   0.33250   0.79270   1.000
    O284    O    0.45670   0.33260   0.83990   1.000
    O285    O    0.32160   0.40050   0.85390   1.000
    O286    O    0.43320   0.39210   0.89230   1.000
    O287    O    0.49500   0.29190   0.92020   1.000
    O288    O    0.37090   0.28650   0.86820   1.000
    O289    O    0.33770   0.23460   0.74390   1.000
    O290    O    0.38680   0.23180   0.63540   1.000
    O291    O    0.44280   0.19520   0.58730   1.000
    O292    O    0.43470   0.07840   0.60580   1.000
    O293    O    0.37770   0.11300   0.65690   1.000
    O294    O    0.52170   0.16250   0.83300   1.000
    O295    O    0.34750   0.11740   0.72360   1.000
    O296    O    0.42160   0.16560   0.78960   1.000
    O297    O    0.33370   0.19750   0.81720   1.000
    O298    O    0.44830   0.19540   0.86300   1.000
    O299    O    0.41790   0.20450   0.92420   1.000
    O300    O    0.51960   0.20470   0.97870   1.000
    O301    O    0.48990   0.11540   0.92420   1.000
    O302    O    0.36710   0.11290   0.87190   1.000
    O303    O    0.45560   0.08470   0.84370   1.000
    O304    O    0.34290   0.08270   0.79490   1.000
    O305    O    0.45000   0.08070   0.72870   1.000
    O306    O    0.29990   0.02990   0.66710   1.000
    O307    O    0.40330   0.99630   0.66800   1.000
    O308    O    0.37540   0.99550   0.73620   1.000
    O309    O    0.48650   0.99870   0.78060   1.000
    O310    O    0.39890   0.97400   0.81230   1.000
    O311    O    0.43090   0.01080   0.89140   1.000
    O312    O    0.51720   0.97620   0.86710   1.000
    O313    O    0.47590   0.89310   0.80580   1.000
    O314    O    0.43800   0.91080   0.72260   1.000
    N73     N    0.42180   0.79020   0.50920   1.000
    H271    H    0.42030   0.80130   0.48500   1.000
    N74     N    0.46610   0.80000   0.54190   1.000
    N75     N    0.34650   0.64040   0.61620   1.000
    N76     N    0.31980   0.69370   0.61980   1.000
    H272    H    0.29720   0.69730   0.63360   1.000
    N77     N    0.17630   0.03080   0.42930   1.000
    H273    H    0.15610   0.05480   0.41090   1.000
    N78     N    0.19840   0.97640   0.42030   1.000
    N79     N    0.29450   0.96160   0.59100   1.000
    H274    H    0.32430   0.95800   0.61120   1.000
    N80     N    0.24490   0.95540   0.59460   1.000
    N81     N    0.13320   0.03760   0.63830   1.000
    H275    H    0.11990   0.00660   0.64740   1.000
    N82     N    0.18300   0.03810   0.63150   1.000
    N83     N    0.13510   0.28560   0.59460   1.000
    H276    H    0.14750   0.32210   0.60050   1.000
    N84     N    0.08980   0.27170   0.56250   1.000
    C187    C    0.33050   0.74350   0.48440   1.000
    H277    H    0.33060   0.70000   0.48080   1.000
    H278    H    0.29820   0.75530   0.49120   1.000
    H279    H    0.33030   0.76340   0.45960   1.000
    C188    C    0.38090   0.76200   0.51770   1.000
    C189    C    0.39850   0.75050   0.55760   1.000
    C190    C    0.45030   0.77360   0.57140   1.000
    C191    C    0.48830   0.77280   0.61470   1.000
    H280    H    0.48940   0.81270   0.62640   1.000
    H281    H    0.47490   0.74380   0.63020   1.000
    H282    H    0.52490   0.76130   0.61500   1.000
    C192    C    0.30690   0.80270   0.60020   1.000
    H283    H    0.33340   0.83440   0.60110   1.000
    H284    H    0.27550   0.80780   0.57650   1.000
    H285    H    0.29530   0.80510   0.62400   1.000
    C193    C    0.33350   0.74010   0.59870   1.000
    C194    C    0.37000   0.71840   0.58190   1.000
    C195    C    0.37750   0.65640   0.59260   1.000
    C196    C    0.41020   0.61000   0.57780   1.000
    H286    H    0.39090   0.60000   0.55000   1.000
    H287    H    0.44580   0.62670   0.57970   1.000
    H288    H    0.41470   0.57380   0.59410   1.000
    C197    C    0.25360   0.89410   0.46210   1.000
    H289    H    0.22940   0.86220   0.44770   1.000
    H290    H    0.28480   0.89710   0.45220   1.000
    H291    H    0.26610   0.88480   0.49060   1.000
    C198    C    0.22350   0.95270   0.45550   1.000
    C199    C    0.21900   0.99000   0.48670   1.000
    C200    C    0.18890   0.04230   0.46820   1.000
    C201    C    0.17330   0.09700   0.48590   1.000
    H292    H    0.20480   0.12350   0.49550   1.000
    H293    H    0.14440   0.11800   0.46570   1.000
    H294    H    0.16050   0.08580   0.50820   1.000
    C202    C    0.14950   0.96000   0.54800   1.000
    H295    H    0.13550   0.99960   0.55170   1.000
    H296    H    0.13370   0.94760   0.52020   1.000
    H297    H    0.13960   0.93090   0.56530   1.000
    C203    C    0.21200   0.96280   0.55860   1.000
    C204    C    0.24110   0.97690   0.53190   1.000
    C205    C    0.29470   0.97330   0.55520   1.000
    C206    C    0.34640   0.98010   0.54210   1.000
    H298    H    0.37860   0.97920   0.56570   1.000
    H299    H    0.34810   0.94700   0.52440   1.000
    H300    H    0.34500   0.01820   0.52820   1.000
    C207    C    0.23540   0.11230   0.60280   1.000
    H301    H    0.25310   0.07720   0.59560   1.000
    H302    H    0.22250   0.13890   0.57980   1.000
    H303    H    0.26140   0.13370   0.62470   1.000
    C208    C    0.18640   0.09140   0.61620   1.000
    C209    C    0.13860   0.12520   0.61260   1.000
    C210    C    0.10790   0.09080   0.62900   1.000
    C211    C    0.05440   0.09900   0.63300   1.000
    H304    H    0.05770   0.10700   0.66090   1.000
    H305    H    0.03650   0.13300   0.61660   1.000
    H306    H    0.03290   0.06270   0.62410   1.000
    C212    C    0.04060   0.17590   0.53560   1.000
    H307    H    0.00580   0.18320   0.54010   1.000
    H308    H    0.03850   0.18870   0.50870   1.000
    H309    H    0.04910   0.13300   0.53860   1.000
    C213    C    0.08590   0.21200   0.56650   1.000
    C214    C    0.12800   0.18910   0.59860   1.000
    C215    C    0.15760   0.23740   0.61530   1.000
    C216    C    0.21960   0.24400   0.64020   1.000
    H310    H    0.24110   0.25010   0.62220   1.000
    H311    H    0.23220   0.20720   0.65580   1.000
    H312    H    0.22390   0.27800   0.65820   1.000
    Na7     Na   0.43650   0.20140   0.72240   1.000
    O315    O    0.46190   0.20200   0.73180   1.000
    C217    C    0.20380   0.23900   0.65680   1.000
    H313    H    0.18780   0.23320   0.67810   1.000
    H314    H    0.22200   0.27830   0.66010   1.000
    H315    H    0.23030   0.20750   0.65780   1.000
    W106    W    0.91641   0.42949   0.76551   1.000
    W107    W    0.04286   0.43874   0.83006   1.000
    W108    W    0.00448   0.54350   0.90394   1.000
    W109    W    0.87702   0.53340   0.83947   1.000
    W110    W    0.86648   0.55532   0.69425   1.000
    W111    W    0.89960   0.65263   0.61665   1.000
    W112    W    0.82951   0.66068   0.76593   1.000
    W113    W    0.86238   0.69400   0.87403   1.000
    W114    W    0.99487   0.71021   0.92749   1.000
    W115    W    0.87708   0.85966   0.84628   1.000
    W116    W    0.84537   0.82220   0.73660   1.000
    W117    W    0.88762   0.81630   0.64278   1.000
    W118    W    0.99110   0.87637   0.59954   1.000
    W119    W    0.95245   0.96783   0.67730   1.000
    W120    W    0.91315   0.96760   0.77368   1.000
    Ni22    Ni   0.73678   0.46739   0.65200   1.000
    Ni23    Ni   0.03605   0.66069   0.03460   1.000
    Ni24    Ni   0.82928   0.05898   0.63764   1.000
    P15     P    0.97670   0.83090   0.80093   1.000
    P16     P    0.96200   0.65260   0.83129   1.000
    O316    O    0.97910   0.94010   0.63040   1.000
    O317    O    0.90900   0.02390   0.64820   1.000
    O318    O    0.02270   0.01150   0.69560   1.000
    O319    O    0.94060   0.98070   0.72520   1.000
    O320    O    0.89680   0.93770   0.81640   1.000
    O321    O    0.87120   0.90400   0.73910   1.000
    O322    O    0.98260   0.89890   0.78860   1.000
    O323    O    0.90490   0.90100   0.66370   1.000
    O324    O    0.93050   0.83320   0.60830   1.000
    O325    O    0.03180   0.79850   0.81110   1.000
    O326    O    0.86200   0.80750   0.68980   1.000
    O327    O    0.93280   0.80020   0.76550   1.000
    O328    O    0.84690   0.83250   0.79270   1.000
    O329    O    0.95670   0.83260   0.83990   1.000
    O330    O    0.82160   0.90050   0.85390   1.000
    O331    O    0.93320   0.89210   0.89230   1.000
    O332    O    0.99500   0.79190   0.92020   1.000
    O333    O    0.87090   0.78650   0.86820   1.000
    O334    O    0.83770   0.73460   0.74390   1.000
    O335    O    0.88680   0.73180   0.63540   1.000
    O336    O    0.94280   0.69520   0.58730   1.000
    O337    O    0.93470   0.57840   0.60580   1.000
    O338    O    0.87770   0.61300   0.65690   1.000
    O339    O    0.02170   0.66250   0.83300   1.000
    O340    O    0.84750   0.61740   0.72360   1.000
    O341    O    0.92160   0.66560   0.78960   1.000
    O342    O    0.83370   0.69750   0.81720   1.000
    O343    O    0.94830   0.69540   0.86300   1.000
    O344    O    0.91790   0.70450   0.92420   1.000
    O345    O    0.01960   0.70470   0.97870   1.000
    O346    O    0.98990   0.61540   0.92420   1.000
    O347    O    0.86710   0.61290   0.87190   1.000
    O348    O    0.95560   0.58470   0.84370   1.000
    O349    O    0.84290   0.58270   0.79490   1.000
    O350    O    0.95000   0.58070   0.72870   1.000
    O351    O    0.79990   0.52990   0.66710   1.000
    O352    O    0.90330   0.49630   0.66800   1.000
    O353    O    0.87540   0.49550   0.73620   1.000
    O354    O    0.98650   0.49870   0.78060   1.000
    O355    O    0.89890   0.47400   0.81230   1.000
    O356    O    0.93090   0.51080   0.89140   1.000
    O357    O    0.01720   0.47620   0.86710   1.000
    O358    O    0.97590   0.39310   0.80580   1.000
    O359    O    0.93800   0.41080   0.72260   1.000
    N85     N    0.92180   0.29020   0.50920   1.000
    H316    H    0.92030   0.30130   0.48500   1.000
    N86     N    0.96610   0.30000   0.54190   1.000
    N87     N    0.84650   0.14040   0.61620   1.000
    N88     N    0.81980   0.19370   0.61980   1.000
    H317    H    0.79720   0.19730   0.63360   1.000
    N89     N    0.67630   0.53080   0.42930   1.000
    H318    H    0.65610   0.55480   0.41090   1.000
    N90     N    0.69840   0.47640   0.42030   1.000
    N91     N    0.79450   0.46160   0.59100   1.000
    H319    H    0.82430   0.45800   0.61120   1.000
    N92     N    0.74490   0.45540   0.59460   1.000
    N93     N    0.63320   0.53760   0.63830   1.000
    H320    H    0.61990   0.50660   0.64740   1.000
    N94     N    0.68300   0.53810   0.63150   1.000
    N95     N    0.63510   0.78560   0.59460   1.000
    H321    H    0.64750   0.82210   0.60050   1.000
    N96     N    0.58980   0.77170   0.56250   1.000
    C218    C    0.83050   0.24350   0.48440   1.000
    H322    H    0.83060   0.20000   0.48080   1.000
    H323    H    0.79820   0.25530   0.49120   1.000
    H324    H    0.83030   0.26340   0.45960   1.000
    C219    C    0.88090   0.26200   0.51770   1.000
    C220    C    0.89850   0.25050   0.55760   1.000
    C221    C    0.95030   0.27360   0.57140   1.000
    C222    C    0.98830   0.27280   0.61470   1.000
    H325    H    0.98940   0.31270   0.62640   1.000
    H326    H    0.97490   0.24380   0.63020   1.000
    H327    H    0.02490   0.26130   0.61500   1.000
    C223    C    0.80690   0.30270   0.60020   1.000
    H328    H    0.83340   0.33440   0.60110   1.000
    H329    H    0.77550   0.30780   0.57650   1.000
    H330    H    0.79530   0.30510   0.62400   1.000
    C224    C    0.83350   0.24010   0.59870   1.000
    C225    C    0.87000   0.21840   0.58190   1.000
    C226    C    0.87750   0.15640   0.59260   1.000
    C227    C    0.91020   0.11000   0.57780   1.000
    H331    H    0.89090   0.10000   0.55000   1.000
    H332    H    0.94580   0.12670   0.57970   1.000
    H333    H    0.91470   0.07380   0.59410   1.000
    C228    C    0.75360   0.39410   0.46210   1.000
    H334    H    0.72940   0.36220   0.44770   1.000
    H335    H    0.78480   0.39710   0.45220   1.000
    H336    H    0.76610   0.38480   0.49060   1.000
    C229    C    0.72350   0.45270   0.45550   1.000
    C230    C    0.71900   0.49000   0.48670   1.000
    C231    C    0.68890   0.54230   0.46820   1.000
    C232    C    0.67330   0.59700   0.48590   1.000
    H337    H    0.70480   0.62350   0.49550   1.000
    H338    H    0.64440   0.61800   0.46570   1.000
    H339    H    0.66050   0.58580   0.50820   1.000
    C233    C    0.64950   0.46000   0.54800   1.000
    H340    H    0.63550   0.49960   0.55170   1.000
    H341    H    0.63370   0.44760   0.52020   1.000
    H342    H    0.63960   0.43090   0.56530   1.000
    C234    C    0.71200   0.46280   0.55860   1.000
    C235    C    0.74110   0.47690   0.53190   1.000
    C236    C    0.79470   0.47330   0.55520   1.000
    C237    C    0.84640   0.48010   0.54210   1.000
    H343    H    0.87860   0.47920   0.56570   1.000
    H344    H    0.84810   0.44700   0.52440   1.000
    H345    H    0.84500   0.51820   0.52820   1.000
    C238    C    0.73540   0.61230   0.60280   1.000
    H346    H    0.75310   0.57720   0.59560   1.000
    H347    H    0.72250   0.63890   0.57980   1.000
    H348    H    0.76140   0.63370   0.62470   1.000
    C239    C    0.68640   0.59140   0.61620   1.000
    C240    C    0.63860   0.62520   0.61260   1.000
    C241    C    0.60790   0.59080   0.62900   1.000
    C242    C    0.55440   0.59900   0.63300   1.000
    H349    H    0.55770   0.60700   0.66090   1.000
    H350    H    0.53650   0.63300   0.61660   1.000
    H351    H    0.53290   0.56270   0.62410   1.000
    C243    C    0.54060   0.67590   0.53560   1.000
    H352    H    0.50580   0.68320   0.54010   1.000
    H353    H    0.53850   0.68870   0.50870   1.000
    H354    H    0.54910   0.63300   0.53860   1.000
    C244    C    0.58590   0.71200   0.56650   1.000
    C245    C    0.62800   0.68910   0.59860   1.000
    C246    C    0.65760   0.73740   0.61530   1.000
    C247    C    0.71960   0.74400   0.64020   1.000
    H355    H    0.74110   0.75010   0.62220   1.000
    H356    H    0.73220   0.70720   0.65580   1.000
    H357    H    0.72390   0.77800   0.65820   1.000
    Na8     Na   0.93650   0.70140   0.72240   1.000
    O360    O    0.96190   0.70200   0.73180   1.000
    C248    C    0.70380   0.73900   0.65680   1.000
    H358    H    0.68780   0.73320   0.67810   1.000
    H359    H    0.72200   0.77830   0.66010   1.000
    H360    H    0.73030   0.70750   0.65780   1.000
    P17     P    0.50000   0.95970   0.25000   1.000
    P18     P    0.00000   0.45970   0.25000   1.000
    P19     P    0.50000   0.04030   0.75000   1.000
    P20     P    0.00000   0.54030   0.75000   1.000
