data_functionalizedCrystal
_audit_creation_method	'EQeq! by Chris Wilmer'
_symmetry_space_group_name_H-M	'P1'
_symmetry_Int_Tables_number	1
_symmetry_cell_setting	triclinic
loop_
_symmetry_equiv_pos_as_xyz
  x,y,z
_cell_length_a	19.6891
_cell_length_b	13.7933
_cell_length_c	26.276
_cell_angle_alpha	90
_cell_angle_beta	96.242
_cell_angle_gamma	90
loop_
_atom_site_label
_atom_site_type_symbol
_atom_site_fract_x
_atom_site_fract_y
_atom_site_fract_z
_atom_site_charge
Mof_Zn	Zn	0.07679	0.51281	0.13549	1.223
Mof_Zn	Zn	0.24626	0.5021	0.1464	1.249
Mof_Zn	Zn	0.4202	0.48612	0.15756	1.223
Mof_O 	O 	0.0761	0.6674	0.1631	-0.407
Mof_O 	O 	0.1611	0.6019	0.13276	-0.551
Mof_O 	O 	0.4254	0.3336	0.1615	-0.441
Mof_O 	O 	0.32729	0.4002	0.1581	-0.551
Mof_O 	O 	0.08448	0.4353	0.07431	-0.487
Mof_O 	O 	0.19594	0.4105	0.09374	-0.464
Mof_O 	O 	0.20536	0.0587	0.70811	-0.446
Mof_O 	O 	0.092	0.0568	0.69949	-0.474
Mof_O 	O 	0.2978	0.5932	0.19905	-0.464
Mof_O 	O 	0.40752	0.5593	0.21896	-0.499
Mof_O 	O 	0.40179	0.9501	0.59169	-0.521
Mof_O 	O 	0.28869	0.9339	0.58645	-0.476
Mof_C 	C 	0.1717	0.7683	0.1575	-0.106
Mof_C 	C 	0.2323	0.7812	0.138	0.004
Mof_H 	H 	0.2519	0.7297	0.1219	0.042
Mof_C 	C 	0.2652	0.8701	0.1417	-0.043
Mof_H 	H 	0.3072	0.8771	0.1289	0.034
Mof_C 	C 	0.2366	0.9481	0.1641	-0.069
Mof_C 	C 	0.1765	0.9338	0.1842	-0.044
Mof_H 	H 	0.1569	0.9851	0.2002	0.026
Mof_C 	C 	0.1442	0.8452	0.1814	0.001
Mof_H 	H 	0.1035	0.8374	0.1957	0.038
Mof_C 	C 	0.1343	0.6748	0.1511	0.377
Mof_C 	C 	0.3297	0.2284	0.1623	-0.211
Mof_C 	C 	0.3693	0.1459	0.1624	0.149
Mof_H 	H 	0.4163	0.151	0.1618	-0.002
Mof_C 	C 	0.339	0.0554	0.1633	-0.218
Mof_H 	H 	0.3661	0.0002	0.1632	0.12
Mof_C 	C 	0.2698	0.0452	0.1645	0.173
Mof_C 	C 	0.2323	0.1292	0.1662	-0.216
Mof_H 	H 	0.1855	0.1248	0.1681	0.117
Mof_C 	C 	0.262	0.2194	0.1652	0.154
Mof_H 	H 	0.2352	0.2746	0.1665	-0.007
Mof_C 	C 	0.3621	0.3256	0.1603	0.433
Mof_C 	C 	0.1426	0.3449	0.0172	-0.144
Mof_C 	C 	0.2034	0.3225	0.9983	0.066
Mof_H 	H 	0.2444	0.3389	0.0174	0.022
Mof_C 	C 	0.2048	0.2773	0.9527	-0.117
Mof_H 	H 	0.2468	0.2642	0.941	0.072
Mof_C 	C 	0.1455	0.2499	0.9229	0.047
Mof_C 	C 	0.084	0.2716	0.942	-0.119
Mof_H 	H 	0.043	0.2544	0.9232	0.073
Mof_C 	C 	0.083	0.3178	0.9879	0.064
Mof_H 	H 	0.0412	0.3314	0.9997	0.02
Mof_C 	C 	0.1414	0.4005	0.06583	0.416
Mof_C 	C 	0.1483	0.1192	0.775	-0.163
Mof_C 	C 	0.2068	0.1387	0.805	0.087
Mof_H 	H 	0.2486	0.1242	0.7934	0.022
Mof_C 	C 	0.2052	0.1805	0.8531	-0.139
Mof_H 	H 	0.2464	0.1938	0.8727	0.082
Mof_C 	C 	0.1465	0.2025	0.8727	0.076
Mof_C 	C 	0.0884	0.186	0.8411	-0.143
Mof_H 	H 	0.0466	0.2029	0.8521	0.091
Mof_C 	C 	0.089	0.1448	0.793	0.09
Mof_H 	H 	0.0479	0.1347	0.7726	0.022
Mof_C 	C 	0.1497	0.0751	0.72357	0.431
Mof_C 	C 	0.3502	0.6442	0.2787	-0.171
Mof_C 	C 	0.4094	0.6569	0.311	0.077
Mof_H 	H 	0.4507	0.6347	0.3012	0.016
Mof_C 	C 	0.4083	0.7018	0.3576	-0.149
Mof_H 	H 	0.4492	0.7121	0.3781	0.084
Mof_C 	C 	0.3486	0.7318	0.3746	0.059
Mof_C 	C 	0.2904	0.7246	0.3403	-0.146
Mof_H 	H 	0.2494	0.7496	0.3491	0.079
Mof_C 	C 	0.2921	0.6808	0.293	0.084
Mof_H 	H 	0.2522	0.6767	0.2707	0.016
Mof_C 	C 	0.3517	0.5947	0.2285	0.433
Mof_C 	C 	0.3461	0.8718	0.5199	-0.167
Mof_C 	C 	0.4051	0.865	0.4969	0.075
Mof_H 	H 	0.4453	0.8909	0.5131	0.007
Mof_C 	C 	0.4055	0.8204	0.4501	-0.133
Mof_H 	H 	0.446	0.818	0.4349	0.093
Mof_C 	C 	0.3473	0.7791	0.4251	0.068
Mof_C 	C 	0.2887	0.7877	0.4485	-0.14
Mof_H 	H 	0.2484	0.7615	0.4325	0.077
Mof_C 	C 	0.2872	0.8332	0.4947	0.074
Mof_H 	H 	0.2463	0.8383	0.5091	0.012
Mof_C 	C 	0.3445	0.9237	0.5702	0.432
Mof_N 	N 	0.9723	0.5139	0.12942	-0.269
Mof_N 	N 	0.76	0.5059	0.1258	-0.105
Mof_N 	N 	0.7392	0.5062	0.167	-0.087
Mof_C 	C 	0.9433	0.5446	0.17	0.12
Mof_H 	H 	0.9712	0.5681	0.1981	-0.015
Mof_C 	C 	0.8734	0.543	0.172	-0.205
Mof_H 	H 	0.8543	0.5644	0.2009	0.113
Mof_C 	C 	0.8326	0.5084	0.1294	0.189
Mof_C 	C 	0.8627	0.4791	0.0876	-0.219
Mof_H 	H 	0.8359	0.4584	0.0583	0.116
Mof_C 	C 	0.9326	0.4804	0.0891	0.129
Mof_H 	H 	0.9527	0.4572	0.061	-0.016
Mof_C 	C 	0.565	0.4483	0.1994	-0.018
Mof_H 	H 	0.5448	0.4134	0.224	0.022
Mof_C 	C 	0.6357	0.4518	0.2009	-0.101
Mof_H 	H 	0.6629	0.4193	0.2266	0.068
Mof_C 	C 	0.6658	0.504	0.164	0.044
Mof_C 	C 	0.6252	0.5526	0.1256	-0.034
Mof_H 	H 	0.6453	0.5875	0.101	0.044
Mof_C 	C 	0.5544	0.5491	0.1241	0.004
Mof_H 	H 	0.5273	0.5817	0.0984	0.018
Mof_N 	N 	0.5243	0.497	0.161	-0.1
Mof_C 	C 	0.5659	0.4999	0.2061	0.032
Mof_H 	H 	0.5467	0.4986	0.2368	0.006
Mof_C 	C 	0.6365	0.5038	0.2062	-0.014
Mof_H 	H 	0.6645	0.505	0.2371	0.041
Mof_C 	C 	0.6653	0.5057	0.1602	0.043
Mof_C 	C 	0.6234	0.5038	0.114	-0.078
Mof_H 	H 	0.6427	0.5051	0.0832	0.063
Mof_C 	C 	0.5529	0.5	0.1139	0.001
Mof_H 	H 	0.5249	0.4987	0.083	0.016
Mof_N 	N 	0.5241	0.4981	0.1599	-0.099
Mof_Zn	Zn	0.07679	0.98719	0.63549	1.209
Mof_Zn	Zn	0.24626	0.9979	0.6464	1.236
Mof_Zn	Zn	0.4202	0.01388	0.65756	1.235
Mof_O 	O 	0.0761	0.8326	0.6631	-0.418
Mof_O 	O 	0.1611	0.8981	0.63276	-0.568
Mof_O 	O 	0.4254	0.1664	0.6615	-0.437
Mof_O 	O 	0.32729	0.0998	0.6581	-0.53
Mof_O 	O 	0.08448	0.0647	0.57431	-0.469
Mof_O 	O 	0.19594	0.0895	0.59374	-0.449
Mof_O 	O 	0.20536	0.4413	0.20811	-0.463
Mof_O 	O 	0.092	0.4432	0.19949	-0.494
Mof_O 	O 	0.2978	0.9068	0.69905	-0.474
Mof_O 	O 	0.40752	0.9407	0.71896	-0.514
Mof_O 	O 	0.40179	0.5499	0.09169	-0.503
Mof_O 	O 	0.28869	0.5661	0.08645	-0.463
Mof_C 	C 	0.1717	0.7317	0.6575	-0.161
Mof_C 	C 	0.2323	0.7188	0.638	0.075
Mof_H 	H 	0.2519	0.7703	0.6219	0.019
Mof_C 	C 	0.2652	0.6299	0.6417	-0.131
Mof_H 	H 	0.3072	0.6229	0.6289	0.076
Mof_C 	C 	0.2366	0.5519	0.6641	0.057
Mof_C 	C 	0.1765	0.5662	0.6842	-0.135
Mof_H 	H 	0.1569	0.5149	0.7002	0.076
Mof_C 	C 	0.1442	0.6548	0.6814	0.075
Mof_H 	H 	0.1035	0.6626	0.6957	0.016
Mof_C 	C 	0.1343	0.8252	0.6511	0.4
Mof_C 	C 	0.3297	0.2716	0.6623	-0.159
Mof_C 	C 	0.3693	0.3541	0.6624	0.071
Mof_H 	H 	0.4163	0.349	0.6618	0.017
Mof_C 	C 	0.339	0.4446	0.6633	-0.132
Mof_H 	H 	0.3661	0.4998	0.6632	0.073
Mof_C 	C 	0.2698	0.4548	0.6645	0.054
Mof_C 	C 	0.2323	0.3708	0.6662	-0.131
Mof_H 	H 	0.1855	0.3752	0.6681	0.077
Mof_C 	C 	0.262	0.2806	0.6652	0.081
Mof_H 	H 	0.2352	0.2254	0.6665	0.017
Mof_C 	C 	0.3621	0.1744	0.6603	0.41
Mof_C 	C 	0.1426	0.1551	0.5172	-0.134
Mof_C 	C 	0.2034	0.1775	0.4983	0.061
Mof_H 	H 	0.2444	0.1611	0.5174	0.027
Mof_C 	C 	0.2048	0.2227	0.4527	-0.11
Mof_H 	H 	0.2468	0.2358	0.441	0.068
Mof_C 	C 	0.1455	0.2501	0.4229	0.039
Mof_C 	C 	0.084	0.2284	0.442	-0.111
Mof_H 	H 	0.043	0.2456	0.4232	0.069
Mof_C 	C 	0.083	0.1822	0.4879	0.059
Mof_H 	H 	0.0412	0.1686	0.4997	0.024
Mof_C 	C 	0.1414	0.0995	0.56583	0.413
Mof_C 	C 	0.1483	0.3808	0.275	-0.175
Mof_C 	C 	0.2068	0.3613	0.305	0.092
Mof_H 	H 	0.2486	0.3758	0.2934	0.014
Mof_C 	C 	0.2052	0.3195	0.3531	-0.148
Mof_H 	H 	0.2464	0.3062	0.3727	0.079
Mof_C 	C 	0.1465	0.2975	0.3727	0.081
Mof_C 	C 	0.0884	0.314	0.3411	-0.153
Mof_H 	H 	0.0466	0.2971	0.3521	0.092
Mof_C 	C 	0.089	0.3552	0.293	0.097
Mof_H 	H 	0.0479	0.3653	0.2726	0.015
Mof_C 	C 	0.1497	0.4249	0.22357	0.436
Mof_C 	C 	0.3502	0.8558	0.7787	-0.178
Mof_C 	C 	0.4094	0.8431	0.811	0.09
Mof_H 	H 	0.4507	0.8653	0.8012	0.011
Mof_C 	C 	0.4083	0.7982	0.8576	-0.148
Mof_H 	H 	0.4492	0.7879	0.8781	0.083
Mof_C 	C 	0.3486	0.7682	0.8746	0.069
Mof_C 	C 	0.2904	0.7754	0.8403	-0.147
Mof_H 	H 	0.2494	0.7504	0.8491	0.083
Mof_C 	C 	0.2921	0.8192	0.793	0.092
Mof_H 	H 	0.2522	0.8233	0.7707	0.01
Mof_C 	C 	0.3517	0.9053	0.7285	0.436
Mof_C 	C 	0.3461	0.6282	0.0199	-0.151
Mof_C 	C 	0.4051	0.635	0.9969	0.063
Mof_H 	H 	0.4453	0.6091	0.0131	0.016
Mof_C 	C 	0.4055	0.6796	0.9501	-0.125
Mof_H 	H 	0.446	0.682	0.9349	0.071
Mof_C 	C 	0.3473	0.7209	0.9251	0.048
Mof_C 	C 	0.2887	0.7123	0.9485	-0.124
Mof_H 	H 	0.2484	0.7385	0.9325	0.07
Mof_C 	C 	0.2872	0.6668	0.9947	0.063
Mof_H 	H 	0.2463	0.6617	0.0091	0.018
Mof_C 	C 	0.3445	0.5763	0.0702	0.428
Mof_N 	N 	0.9723	0.9861	0.62942	-0.285
Mof_N 	N 	0.76	0.9941	0.6258	-0.106
Mof_N 	N 	0.7392	0.9938	0.667	-0.095
Mof_C 	C 	0.9433	0.9554	0.67	0.1
Mof_H 	H 	0.9712	0.9319	0.6981	-0.015
Mof_C 	C 	0.8734	0.957	0.672	-0.185
Mof_H 	H 	0.8543	0.9356	0.7009	0.101
Mof_C 	C 	0.8326	0.9916	0.6294	0.136
Mof_C 	C 	0.8627	0.0209	0.5876	-0.162
Mof_H 	H 	0.8359	0.0416	0.5583	0.106
Mof_C 	C 	0.9326	0.0196	0.5891	0.144
Mof_H 	H 	0.9527	0.0428	0.561	-0.013
Mof_C 	C 	0.565	0.0517	0.6994	0.308
Mof_H 	H 	0.5448	0.0866	0.724	-0.083
Mof_C 	C 	0.6357	0.0482	0.7009	0.06
Mof_H 	H 	0.6629	0.0807	0.7266	0.025
Mof_C 	C 	0.6658	0.996	0.664	0.051
Mof_C 	C 	0.6252	0.9474	0.6256	-0.307
Mof_H 	H 	0.6453	0.9125	0.601	0.129
Mof_C 	C 	0.5544	0.9509	0.6241	-0.094
Mof_H 	H 	0.5273	0.9183	0.5984	0.04
Mof_N 	N 	0.5243	0.003	0.661	-0.09
Mof_C 	C 	0.5659	0.0001	0.7061	-0.273
Mof_H 	H 	0.5467	0.0014	0.7368	0.115
Mof_C 	C 	0.6365	0.9962	0.7062	-0.174
Mof_H 	H 	0.6645	0.995	0.7371	0.077
Mof_C 	C 	0.6653	0.9943	0.6602	0.047
Mof_C 	C 	0.6234	0.9962	0.614	0.174
Mof_H 	H 	0.6427	0.9949	0.5832	-0.033
Mof_C 	C 	0.5529	0	0.6139	0.103
Mof_H 	H 	0.5249	0.0013	0.583	-0.002
Mof_N 	N 	0.5241	0.0019	0.6599	-0.093
Mof_Zn	Zn	0.92321	0.01281	0.36451	1.234
Mof_Zn	Zn	0.75374	0.0021	0.3536	1.261
Mof_Zn	Zn	0.5798	0.98612	0.34244	1.211
Mof_O 	O 	0.9239	0.1674	0.3369	-0.404
Mof_O 	O 	0.8389	0.1019	0.36724	-0.544
Mof_O 	O 	0.5746	0.8336	0.3385	-0.447
Mof_O 	O 	0.67271	0.9002	0.3419	-0.562
Mof_O 	O 	0.91552	0.9353	0.42569	-0.502
Mof_O 	O 	0.80406	0.9105	0.40626	-0.479
Mof_O 	O 	0.79464	0.5587	0.79189	-0.465
Mof_O 	O 	0.908	0.5568	0.80051	-0.495
Mof_O 	O 	0.7022	0.0932	0.30095	-0.454
Mof_O 	O 	0.59248	0.0593	0.28104	-0.478
Mof_O 	O 	0.59821	0.4501	0.90831	-0.502
Mof_O 	O 	0.71131	0.4339	0.91355	-0.461
Mof_C 	C 	0.8283	0.2683	0.3425	-0.151
Mof_C 	C 	0.7677	0.2812	0.362	0.069
Mof_H 	H 	0.7481	0.2297	0.3781	0.021
Mof_C 	C 	0.7348	0.3701	0.3583	-0.125
Mof_H 	H 	0.6928	0.3771	0.3711	0.073
Mof_C 	C 	0.7634	0.4481	0.3359	0.051
Mof_C 	C 	0.8235	0.4338	0.3158	-0.128
Mof_H 	H 	0.8431	0.4851	0.2998	0.074
Mof_C 	C 	0.8558	0.3452	0.3186	0.069
Mof_H 	H 	0.8965	0.3374	0.3043	0.021
Mof_C 	C 	0.8657	0.1748	0.3489	0.395
Mof_C 	C 	0.6703	0.7284	0.3377	-0.169
Mof_C 	C 	0.6307	0.6459	0.3376	0.078
Mof_H 	H 	0.5837	0.651	0.3382	0.014
Mof_C 	C 	0.661	0.5554	0.3367	-0.138
Mof_H 	H 	0.6339	0.5002	0.3368	0.074
Mof_C 	C 	0.7302	0.5452	0.3355	0.059
Mof_C 	C 	0.7677	0.6292	0.3338	-0.138
Mof_H 	H 	0.8145	0.6248	0.3319	0.079
Mof_C 	C 	0.738	0.7194	0.3348	0.088
Mof_H 	H 	0.7648	0.7746	0.3335	0.014
Mof_C 	C 	0.6379	0.8256	0.3397	0.418
Mof_C 	C 	0.8574	0.8449	0.4828	-0.153
Mof_C 	C 	0.7966	0.8225	0.5017	0.067
Mof_H 	H 	0.7556	0.8389	0.4826	0.016
Mof_C 	C 	0.7952	0.7773	0.5473	-0.122
Mof_H 	H 	0.7532	0.7642	0.559	0.071
Mof_C 	C 	0.8545	0.7499	0.5771	0.044
Mof_C 	C 	0.916	0.7716	0.558	-0.124
Mof_H 	H 	0.957	0.7544	0.5768	0.072
Mof_C 	C 	0.917	0.8178	0.5121	0.064
Mof_H 	H 	0.9588	0.8314	0.5003	0.016
Mof_C 	C 	0.8586	0.9005	0.43417	0.418
Mof_C 	C 	0.8517	0.6192	0.725	-0.175
Mof_C 	C 	0.7932	0.6387	0.695	0.092
Mof_H 	H 	0.7514	0.6242	0.7066	0.016
Mof_C 	C 	0.7948	0.6805	0.6469	-0.146
Mof_H 	H 	0.7536	0.6938	0.6273	0.082
Mof_C 	C 	0.8535	0.7025	0.6273	0.078
Mof_C 	C 	0.9116	0.686	0.6589	-0.151
Mof_H 	H 	0.9534	0.7029	0.6479	0.091
Mof_C 	C 	0.911	0.6448	0.707	0.096
Mof_H 	H 	0.9521	0.6347	0.7274	0.014
Mof_C 	C 	0.8503	0.5751	0.77643	0.435
Mof_C 	C 	0.6498	0.1442	0.2213	-0.159
Mof_C 	C 	0.5906	0.1569	0.189	0.082
Mof_H 	H 	0.5493	0.1347	0.1988	0.024
Mof_C 	C 	0.5917	0.2018	0.1424	-0.134
Mof_H 	H 	0.5508	0.2121	0.1219	0.085
Mof_C 	C 	0.6514	0.2318	0.1254	0.066
Mof_C 	C 	0.7096	0.2246	0.1597	-0.133
Mof_H 	H 	0.7506	0.2496	0.1509	0.084
Mof_C 	C 	0.7079	0.1808	0.207	0.086
Mof_H 	H 	0.7478	0.1767	0.2293	0.021
Mof_C 	C 	0.6483	0.0947	0.2715	0.431
Mof_C 	C 	0.6539	0.3718	0.9801	-0.152
Mof_C 	C 	0.5949	0.365	0.0031	0.07
Mof_H 	H 	0.5547	0.3909	0.9869	0.016
Mof_C 	C 	0.5945	0.3204	0.0499	-0.129
Mof_H 	H 	0.554	0.318	0.0651	0.075
Mof_C 	C 	0.6527	0.2791	0.0749	0.058
Mof_C 	C 	0.7113	0.2877	0.0515	-0.128
Mof_H 	H 	0.7516	0.2615	0.0675	0.079
Mof_C 	C 	0.7128	0.3332	0.0053	0.07
Mof_H 	H 	0.7537	0.3383	0.9909	0.02
Mof_C 	C 	0.6555	0.4237	0.9298	0.43
Mof_N 	N 	0.0277	0.0139	0.37058	-0.249
Mof_N 	N 	0.24	0.0059	0.3742	-0.106
Mof_N 	N 	0.2608	0.0062	0.333	-0.083
Mof_C 	C 	0.0567	0.0446	0.33	0.142
Mof_H 	H 	0.0288	0.0681	0.3019	-0.014
Mof_C 	C 	0.1266	0.043	0.328	-0.23
Mof_H 	H 	0.1457	0.0644	0.2991	0.129
Mof_C 	C 	0.1674	0.0084	0.3706	0.252
Mof_C 	C 	0.1373	0.9791	0.4124	-0.286
Mof_H 	H 	0.1641	0.9584	0.4417	0.125
Mof_C 	C 	0.0674	0.9804	0.4109	0.107
Mof_H 	H 	0.0473	0.9572	0.439	-0.021
Mof_C 	C 	0.435	0.9483	0.3006	1.252
Mof_H 	H 	0.4552	0.9134	0.276	-0.401
Mof_C 	C 	0.3643	0.9518	0.2991	1.374
Mof_H 	H 	0.3371	0.9193	0.2734	-0.434
Mof_C 	C 	0.3342	0.004	0.336	0.046
Mof_C 	C 	0.3748	0.0526	0.3744	1.336
Mof_H 	H 	0.3547	0.0875	0.399	-0.366
Mof_C 	C 	0.4456	0.0491	0.3759	1.493
Mof_H 	H 	0.4727	0.0817	0.4016	-0.42
Mof_N 	N 	0.4757	0.997	0.339	-0.117
Mof_C 	C 	0.4341	0.9999	0.2939	-1.302
Mof_H 	H 	0.4533	0.9986	0.2632	0.398
Mof_C 	C 	0.3635	0.0038	0.2938	-1.467
Mof_H 	H 	0.3355	0.005	0.2629	0.493
Mof_C 	C 	0.3347	0.0057	0.3398	0.072
Mof_C 	C 	0.3766	0.0038	0.386	-1.504
Mof_H 	H 	0.3573	0.0051	0.4168	0.546
Mof_C 	C 	0.4471	-7.1172e-33	0.3861	-1.364
Mof_H 	H 	0.4751	0.9987	0.417	0.429
Mof_N 	N 	0.4759	0.9981	0.3401	-0.108
Mof_Zn	Zn	0.92321	0.48719	0.86451	1.224
Mof_Zn	Zn	0.75374	0.4979	0.8536	1.249
Mof_Zn	Zn	0.5798	0.51388	0.84244	1.223
Mof_O 	O 	0.9239	0.3326	0.8369	-0.413
Mof_O 	O 	0.8389	0.3981	0.86724	-0.559
Mof_O 	O 	0.5746	0.6664	0.8385	-0.434
Mof_O 	O 	0.67271	0.5998	0.8419	-0.542
Mof_O 	O 	0.91552	0.5647	0.92569	-0.487
Mof_O 	O 	0.80406	0.5895	0.90626	-0.466
Mof_O 	O 	0.79464	0.9413	0.29189	-0.481
Mof_O 	O 	0.908	0.9432	0.30051	-0.512
Mof_O 	O 	0.7022	0.4068	0.80095	-0.464
Mof_O 	O 	0.59248	0.4407	0.78104	-0.497
Mof_O 	O 	0.59821	0.0499	0.40831	-0.485
Mof_O 	O 	0.71131	0.0661	0.41355	-0.45
Mof_C 	C 	0.8283	0.2317	0.8425	-0.199
Mof_C 	C 	0.7677	0.2188	0.862	0.132
Mof_H 	H 	0.7481	0.2703	0.8781	0.001
Mof_C 	C 	0.7348	0.1299	0.8583	-0.201
Mof_H 	H 	0.6928	0.1229	0.8711	0.111
Mof_C 	C 	0.7634	0.0519	0.8359	0.163
Mof_C 	C 	0.8235	0.0662	0.8158	-0.208
Mof_H 	H 	0.8431	0.0149	0.7998	0.118
Mof_C 	C 	0.8558	0.1548	0.8186	0.135
Mof_H 	H 	0.8965	0.1626	0.8043	0
Mof_C 	C 	0.8657	0.3252	0.8489	0.415
Mof_C 	C 	0.6703	0.7716	0.8377	-0.118
Mof_C 	C 	0.6307	0.8541	0.8376	0.016
Mof_H 	H 	0.5837	0.849	0.8382	0.034
Mof_C 	C 	0.661	0.9446	0.8367	-0.061
Mof_H 	H 	0.6339	0.9998	0.8368	0.033
Mof_C 	C 	0.7302	0.9548	0.8355	-0.05
Mof_C 	C 	0.7677	0.8708	0.8338	-0.059
Mof_H 	H 	0.8145	0.8752	0.8319	0.043
Mof_C 	C 	0.738	0.7806	0.8348	0.024
Mof_H 	H 	0.7648	0.7254	0.8335	0.036
Mof_C 	C 	0.6379	0.6744	0.8397	0.396
Mof_C 	C 	0.8574	0.6551	0.9828	-0.143
Mof_C 	C 	0.7966	0.6775	0.0017	0.06
Mof_H 	H 	0.7556	0.6611	0.9826	0.021
Mof_C 	C 	0.7952	0.7227	0.0473	-0.114
Mof_H 	H 	0.7532	0.7358	0.059	0.066
Mof_C 	C 	0.8545	0.7501	0.0771	0.035
Mof_C 	C 	0.916	0.7284	0.058	-0.116
Mof_H 	H 	0.957	0.7456	0.0768	0.068
Mof_C 	C 	0.917	0.6822	0.0121	0.058
Mof_H 	H 	0.9588	0.6686	0.0003	0.019
Mof_C 	C 	0.8586	0.5995	0.93417	0.414
Mof_C 	C 	0.8517	0.8808	0.225	-0.188
Mof_C 	C 	0.7932	0.8613	0.195	0.098
Mof_H 	H 	0.7514	0.8758	0.2066	0.006
Mof_C 	C 	0.7948	0.8195	0.1469	-0.157
Mof_H 	H 	0.7536	0.8062	0.1273	0.081
Mof_C 	C 	0.8535	0.7975	0.1273	0.084
Mof_C 	C 	0.9116	0.814	0.1589	-0.161
Mof_H 	H 	0.9534	0.7971	0.1479	0.092
Mof_C 	C 	0.911	0.8552	0.207	0.103
Mof_H 	H 	0.9521	0.8653	0.2274	0.008
Mof_C 	C 	0.8503	0.9249	0.27643	0.441
Mof_C 	C 	0.6498	0.3558	0.7213	-0.172
Mof_C 	C 	0.5906	0.3431	0.689	0.089
Mof_H 	H 	0.5493	0.3653	0.6988	0.015
Mof_C 	C 	0.5917	0.2982	0.6424	-0.15
Mof_H 	H 	0.5508	0.2879	0.6219	0.084
Mof_C 	C 	0.6514	0.2682	0.6254	0.07
Mof_C 	C 	0.7096	0.2754	0.6597	-0.146
Mof_H 	H 	0.7506	0.2504	0.6509	0.088
Mof_C 	C 	0.7079	0.3192	0.707	0.093
Mof_H 	H 	0.7478	0.3233	0.7293	0.016
Mof_C 	C 	0.6483	0.4053	0.7715	0.436
Mof_C 	C 	0.6539	0.1282	0.4801	-0.139
Mof_C 	C 	0.5949	0.135	0.5031	0.059
Mof_H 	H 	0.5547	0.1091	0.4869	0.025
Mof_C 	C 	0.5945	0.1796	0.5499	-0.117
Mof_H 	H 	0.554	0.182	0.5651	0.065
Mof_C 	C 	0.6527	0.2209	0.5749	0.043
Mof_C 	C 	0.7113	0.2123	0.5515	-0.114
Mof_H 	H 	0.7516	0.2385	0.5675	0.072
Mof_C 	C 	0.7128	0.1668	0.5053	0.06
Mof_H 	H 	0.7537	0.1617	0.4909	0.025
Mof_C 	C 	0.6555	0.0763	0.4298	0.425
Mof_N 	N 	0.0277	0.4861	0.87058	-0.27
Mof_N 	N 	0.24	0.4941	0.8742	-0.105
Mof_N 	N 	0.2608	0.4938	0.833	-0.087
Mof_C 	C 	0.0567	0.4554	0.83	0.119
Mof_H 	H 	0.0288	0.4319	0.8019	-0.015
Mof_C 	C 	0.1266	0.457	0.828	-0.206
Mof_H 	H 	0.1457	0.4356	0.7991	0.113
Mof_C 	C 	0.1674	0.4916	0.8706	0.188
Mof_C 	C 	0.1373	0.5209	0.9124	-0.22
Mof_H 	H 	0.1641	0.5416	0.9417	0.115
Mof_C 	C 	0.0674	0.5196	0.9109	0.128
Mof_H 	H 	0.0473	0.5428	0.939	-0.018
Mof_C 	C 	0.435	0.5517	0.8006	-0.031
Mof_H 	H 	0.4552	0.5866	0.776	0.027
Mof_C 	C 	0.3643	0.5482	0.7991	-0.115
Mof_H 	H 	0.3371	0.5807	0.7734	0.073
Mof_C 	C 	0.3342	0.496	0.836	0.045
Mof_C 	C 	0.3748	0.4474	0.8744	-0.033
Mof_H 	H 	0.3547	0.4125	0.899	0.045
Mof_C 	C 	0.4456	0.4509	0.8759	0.004
Mof_H 	H 	0.4727	0.4183	0.9016	0.021
Mof_N 	N 	0.4757	0.503	0.839	-0.1
Mof_C 	C 	0.4341	0.5001	0.7939	0.046
Mof_H 	H 	0.4533	0.5014	0.7632	0.003
Mof_C 	C 	0.3635	0.4962	0.7938	0.001
Mof_H 	H 	0.3355	0.495	0.7629	0.037
Mof_C 	C 	0.3347	0.4943	0.8398	0.043
Mof_C 	C 	0.3766	0.4962	0.886	-0.078
Mof_H 	H 	0.3573	0.4949	0.9168	0.064
Mof_C 	C 	0.4471	0.5	0.8861	0.001
Mof_H 	H 	0.4751	0.5013	0.917	0.016
Mof_N 	N 	0.4759	0.5019	0.8401	-0.099
_end
