# CIF file generated by openbabel 2.4.1, see http://openbabel.sf.net
data_I
_chemical_name_common 'image0'
_cell_length_a 17.7101
_cell_length_b 13.2378
_cell_length_c 17.869
_cell_angle_alpha 90
_cell_angle_beta 90.847
_cell_angle_gamma 90
_space_group_name_H-M_alt 'P 1'
_space_group_name_Hall 'P 1'
loop_
    _symmetry_equiv_pos_as_xyz
    x,y,z
loop_
    _atom_site_label
    _atom_site_type_symbol
    _atom_site_fract_x
    _atom_site_fract_y
    _atom_site_fract_z
    _atom_site_occupancy
    N1      N    0.57900   0.31730   0.97990   1.000
    C1      C    0.51770   0.28510   0.94430   1.000
    H1      H    0.49640   0.21970   0.94960   1.000
    N2      N    0.48940   0.35840   0.89940   1.000
    C2      C    0.53610   0.44450   0.90900   1.000
    H2      H    0.52960   0.50920   0.88680   1.000
    C3      C    0.59030   0.41570   0.95500   1.000
    H3      H    0.63200   0.45680   0.96950   1.000
    C4      C    0.88030   0.64850   0.02870   1.000
    C5      C    0.80210   0.64440   0.02770   1.000
    H4      H    0.77370   0.69960   0.00810   1.000
    C6      C    0.76540   0.56100   0.05490   1.000
    H5      H    0.71180   0.55810   0.05310   1.000
    C7      C    0.80660   0.48000   0.08540   1.000
    C8      C    0.88440   0.48430   0.08510   1.000
    H6      H    0.91300   0.42990   0.10530   1.000
    C9      C    0.92140   0.56770   0.05530   1.000
    H7      H    0.97500   0.56870   0.05350   1.000
    C10     C    0.76470   0.39240   0.11840   1.000
    C11     C    0.95510   0.73140   0.93150   1.000
    C12     C    0.93620   0.66060   0.87880   1.000
    H8      H    0.89840   0.61190   0.88960   1.000
    C13     C    0.97100   0.65850   0.81020   1.000
    H9      H    0.95610   0.61020   0.77350   1.000
    C14     C    0.02850   0.72800   0.79490   1.000
    C15     C    0.04940   0.79760   0.84940   1.000
    H10     H    0.08930   0.84370   0.84010   1.000
    C16     C    0.01310   0.80030   0.91620   1.000
    H11     H    0.02730   0.84920   0.95270   1.000
    C17     C    0.06390   0.72810   0.71940   1.000
    C18     C    0.88460   0.83100   0.02380   1.000
    C19     C    0.87530   0.85030   0.10040   1.000
    H12     H    0.89470   0.80430   0.13660   1.000
    C20     C    0.83850   0.93480   0.12230   1.000
    H13     H    0.83340   0.94810   0.17430   1.000
    C21     C    0.80830   0.00190   0.07110   1.000
    C22     C    0.81950   0.98430   0.99590   1.000
    H14     H    0.80050   0.03080   0.95970   1.000
    C23     C    0.85810   0.89960   0.97300   1.000
    H15     H    0.86640   0.88900   0.92120   1.000
    C24     C    0.76130   0.08990   0.09820   1.000
    C25     C    0.42000   0.35140   0.85590   1.000
    C26     C    0.39600   0.43640   0.81650   1.000
    H16     H    0.42510   0.49670   0.81820   1.000
    C27     C    0.33010   0.43300   0.77500   1.000
    H17     H    0.31410   0.49160   0.74840   1.000
    C28     C    0.28630   0.34640   0.77100   1.000
    C29     C    0.31090   0.26130   0.80950   1.000
    H18     H    0.28210   0.20080   0.80700   1.000
    C30     C    0.37700   0.26400   0.85170   1.000
    H19     H    0.39310   0.20530   0.87800   1.000
    Cd1     Cd   0.63006   0.23642   0.08312   1.000
    N3      N    0.91830   0.73660   0.00140   1.000
    O1      O    0.70090   0.37440   0.09100   1.000
    O2      O    0.79559   0.34670   0.17102   1.000
    O3      O    0.12227   0.78340   0.71041   1.000
    O4      O    0.03490   0.67950   0.66580   1.000
    O5      O    0.76230   0.10740   0.16520   1.000
    O6      O    0.72470   0.13790   0.04870   1.000
    N4      N    0.57680   0.30600   0.98220   1.000
    C31     C    0.50660   0.29500   0.95800   1.000
    H20     H    0.47010   0.25400   0.98180   1.000
    N5      N    0.49280   0.34980   0.89440   1.000
    C32     C    0.56130   0.39740   0.87920   1.000
    H21     H    0.57050   0.44150   0.83840   1.000
    C33     C    0.61060   0.37070   0.93060   1.000
    H22     H    0.66180   0.39210   0.93270   1.000
    N6      N    0.56940   0.31360   0.99000   1.000
    C34     C    0.51780   0.28150   0.94160   1.000
    H23     H    0.50860   0.21270   0.92930   1.000
    N7      N    0.47970   0.36150   0.91190   1.000
    C35     C    0.50980   0.44940   0.94510   1.000
    H24     H    0.49350   0.51700   0.93720   1.000
    C36     C    0.56430   0.41900   0.98890   1.000
    H25     H    0.59670   0.46280   0.01670   1.000
    N8      N    0.92100   0.31730   0.52010   1.000
    C37     C    0.98230   0.28510   0.55570   1.000
    H26     H    0.00360   0.21970   0.55040   1.000
    N9      N    0.01060   0.35840   0.60060   1.000
    C38     C    0.96390   0.44450   0.59100   1.000
    H27     H    0.97040   0.50920   0.61320   1.000
    C39     C    0.90970   0.41570   0.54500   1.000
    H28     H    0.86800   0.45680   0.53050   1.000
    C40     C    0.61970   0.64850   0.47130   1.000
    C41     C    0.69790   0.64440   0.47230   1.000
    H29     H    0.72630   0.69960   0.49190   1.000
    C42     C    0.73460   0.56100   0.44510   1.000
    H30     H    0.78820   0.55810   0.44690   1.000
    C43     C    0.69340   0.48000   0.41460   1.000
    C44     C    0.61560   0.48430   0.41490   1.000
    H31     H    0.58700   0.42990   0.39470   1.000
    C45     C    0.57860   0.56770   0.44470   1.000
    H32     H    0.52500   0.56870   0.44650   1.000
    C46     C    0.73530   0.39240   0.38160   1.000
    C47     C    0.54490   0.73140   0.56850   1.000
    C48     C    0.56380   0.66060   0.62120   1.000
    H33     H    0.60160   0.61190   0.61040   1.000
    C49     C    0.52900   0.65850   0.68980   1.000
    H34     H    0.54390   0.61020   0.72650   1.000
    C50     C    0.47150   0.72800   0.70510   1.000
    C51     C    0.45060   0.79760   0.65060   1.000
    H35     H    0.41070   0.84370   0.65990   1.000
    C52     C    0.48690   0.80030   0.58380   1.000
    H36     H    0.47270   0.84920   0.54730   1.000
    C53     C    0.43610   0.72810   0.78060   1.000
    C54     C    0.61540   0.83100   0.47620   1.000
    C55     C    0.62470   0.85030   0.39960   1.000
    H37     H    0.60530   0.80430   0.36340   1.000
    C56     C    0.66150   0.93480   0.37770   1.000
    H38     H    0.66660   0.94810   0.32570   1.000
    C57     C    0.69170   0.00190   0.42890   1.000
    C58     C    0.68050   0.98430   0.50410   1.000
    H39     H    0.69950   0.03080   0.54030   1.000
    C59     C    0.64190   0.89960   0.52700   1.000
    H40     H    0.63360   0.88900   0.57880   1.000
    C60     C    0.73870   0.08990   0.40180   1.000
    C61     C    0.08000   0.35140   0.64410   1.000
    C62     C    0.10400   0.43640   0.68350   1.000
    H41     H    0.07490   0.49670   0.68180   1.000
    C63     C    0.16990   0.43300   0.72500   1.000
    H42     H    0.18590   0.49160   0.75160   1.000
    C64     C    0.21370   0.34640   0.72900   1.000
    C65     C    0.18910   0.26130   0.69050   1.000
    H43     H    0.21790   0.20080   0.69300   1.000
    C66     C    0.12300   0.26400   0.64830   1.000
    H44     H    0.10690   0.20530   0.62200   1.000
    Cd2     Cd   0.86994   0.23642   0.41688   1.000
    N10     N    0.58170   0.73660   0.49860   1.000
    O7      O    0.79910   0.37440   0.40900   1.000
    O8      O    0.70441   0.34670   0.32898   1.000
    O9      O    0.37773   0.78340   0.78959   1.000
    O10     O    0.46510   0.67950   0.83420   1.000
    O11     O    0.73770   0.10740   0.33480   1.000
    O12     O    0.77530   0.13790   0.45130   1.000
    N11     N    0.92320   0.30600   0.51780   1.000
    C67     C    0.99340   0.29500   0.54200   1.000
    H45     H    0.02990   0.25400   0.51820   1.000
    N12     N    0.00720   0.34980   0.60560   1.000
    C68     C    0.93870   0.39740   0.62080   1.000
    H46     H    0.92950   0.44150   0.66160   1.000
    C69     C    0.88940   0.37070   0.56940   1.000
    H47     H    0.83820   0.39210   0.56730   1.000
    N13     N    0.93060   0.31360   0.51000   1.000
    C70     C    0.98220   0.28150   0.55840   1.000
    H48     H    0.99140   0.21270   0.57070   1.000
    N14     N    0.02030   0.36150   0.58810   1.000
    C71     C    0.99020   0.44940   0.55490   1.000
    H49     H    0.00650   0.51700   0.56280   1.000
    C72     C    0.93570   0.41900   0.51110   1.000
    H50     H    0.90330   0.46280   0.48330   1.000
    N15     N    0.42100   0.68270   0.02010   1.000
    C73     C    0.48230   0.71490   0.05570   1.000
    H51     H    0.50360   0.78030   0.05040   1.000
    N16     N    0.51060   0.64160   0.10060   1.000
    C74     C    0.46390   0.55550   0.09100   1.000
    H52     H    0.47040   0.49080   0.11320   1.000
    C75     C    0.40970   0.58430   0.04500   1.000
    H53     H    0.36800   0.54320   0.03050   1.000
    C76     C    0.11970   0.35150   0.97130   1.000
    C77     C    0.19790   0.35560   0.97230   1.000
    H54     H    0.22630   0.30040   0.99190   1.000
    C78     C    0.23460   0.43900   0.94510   1.000
    H55     H    0.28820   0.44190   0.94690   1.000
    C79     C    0.19340   0.52000   0.91460   1.000
    C80     C    0.11560   0.51570   0.91490   1.000
    H56     H    0.08700   0.57010   0.89470   1.000
    C81     C    0.07860   0.43230   0.94470   1.000
    H57     H    0.02500   0.43130   0.94650   1.000
    C82     C    0.23530   0.60760   0.88160   1.000
    C83     C    0.04490   0.26860   0.06850   1.000
    C84     C    0.06380   0.33940   0.12120   1.000
    H58     H    0.10160   0.38810   0.11040   1.000
    C85     C    0.02900   0.34150   0.18980   1.000
    H59     H    0.04390   0.38980   0.22650   1.000
    C86     C    0.97150   0.27200   0.20510   1.000
    C87     C    0.95060   0.20240   0.15060   1.000
    H60     H    0.91070   0.15630   0.15990   1.000
    C88     C    0.98690   0.19970   0.08380   1.000
    H61     H    0.97270   0.15080   0.04730   1.000
    C89     C    0.93610   0.27190   0.28060   1.000
    C90     C    0.11540   0.16900   0.97620   1.000
    C91     C    0.12470   0.14970   0.89960   1.000
    H62     H    0.10530   0.19570   0.86340   1.000
    C92     C    0.16150   0.06520   0.87770   1.000
    H63     H    0.16660   0.05190   0.82570   1.000
    C93     C    0.19170   0.99810   0.92890   1.000
    C94     C    0.18050   0.01570   0.00410   1.000
    H64     H    0.19950   0.96920   0.04030   1.000
    C95     C    0.14190   0.10040   0.02700   1.000
    H65     H    0.13360   0.11100   0.07880   1.000
    C96     C    0.23870   0.91010   0.90180   1.000
    C97     C    0.58000   0.64860   0.14410   1.000
    C98     C    0.60400   0.56360   0.18350   1.000
    H66     H    0.57490   0.50330   0.18180   1.000
    C99     C    0.66990   0.56700   0.22500   1.000
    H67     H    0.68590   0.50840   0.25160   1.000
    C100    C    0.71370   0.65360   0.22900   1.000
    C101    C    0.68910   0.73870   0.19050   1.000
    H68     H    0.71790   0.79920   0.19300   1.000
    C102    C    0.62300   0.73600   0.14830   1.000
    H69     H    0.60690   0.79470   0.12200   1.000
    Cd3     Cd   0.36994   0.76358   0.91688   1.000
    N17     N    0.08170   0.26340   0.99860   1.000
    O13     O    0.29910   0.62560   0.90900   1.000
    O14     O    0.20441   0.65330   0.82898   1.000
    O15     O    0.87773   0.21660   0.28959   1.000
    O16     O    0.96510   0.32050   0.33420   1.000
    O17     O    0.23770   0.89260   0.83480   1.000
    O18     O    0.27530   0.86210   0.95130   1.000
    N18     N    0.42320   0.69400   0.01780   1.000
    C103    C    0.49340   0.70500   0.04200   1.000
    H70     H    0.52990   0.74600   0.01820   1.000
    N19     N    0.50720   0.65020   0.10560   1.000
    C104    C    0.43870   0.60260   0.12080   1.000
    H71     H    0.42950   0.55850   0.16160   1.000
    C105    C    0.38940   0.62930   0.06940   1.000
    H72     H    0.33820   0.60790   0.06730   1.000
    N20     N    0.43060   0.68640   0.01000   1.000
    C106    C    0.48220   0.71850   0.05840   1.000
    H73     H    0.49140   0.78730   0.07070   1.000
    N21     N    0.52030   0.63850   0.08810   1.000
    C107    C    0.49020   0.55060   0.05490   1.000
    H74     H    0.50650   0.48300   0.06280   1.000
    C108    C    0.43570   0.58100   0.01110   1.000
    H75     H    0.40330   0.53720   0.98330   1.000
    N22     N    0.07900   0.68270   0.47990   1.000
    C109    C    0.01770   0.71490   0.44430   1.000
    H76     H    0.99640   0.78030   0.44960   1.000
    N23     N    0.98940   0.64160   0.39940   1.000
    C110    C    0.03610   0.55550   0.40900   1.000
    H77     H    0.02960   0.49080   0.38680   1.000
    C111    C    0.09030   0.58430   0.45500   1.000
    H78     H    0.13200   0.54320   0.46950   1.000
    C112    C    0.38030   0.35150   0.52870   1.000
    C113    C    0.30210   0.35560   0.52770   1.000
    H79     H    0.27370   0.30040   0.50810   1.000
    C114    C    0.26540   0.43900   0.55490   1.000
    H80     H    0.21180   0.44190   0.55310   1.000
    C115    C    0.30660   0.52000   0.58540   1.000
    C116    C    0.38440   0.51570   0.58510   1.000
    H81     H    0.41300   0.57010   0.60530   1.000
    C117    C    0.42140   0.43230   0.55530   1.000
    H82     H    0.47500   0.43130   0.55350   1.000
    C118    C    0.26470   0.60760   0.61840   1.000
    C119    C    0.45510   0.26860   0.43150   1.000
    C120    C    0.43620   0.33940   0.37880   1.000
    H83     H    0.39840   0.38810   0.38960   1.000
    C121    C    0.47100   0.34150   0.31020   1.000
    H84     H    0.45610   0.38980   0.27350   1.000
    C122    C    0.52850   0.27200   0.29490   1.000
    C123    C    0.54940   0.20240   0.34940   1.000
    H85     H    0.58930   0.15630   0.34010   1.000
    C124    C    0.51310   0.19970   0.41620   1.000
    H86     H    0.52730   0.15080   0.45270   1.000
    C125    C    0.56390   0.27190   0.21940   1.000
    C126    C    0.38460   0.16900   0.52380   1.000
    C127    C    0.37530   0.14970   0.60040   1.000
    H87     H    0.39470   0.19570   0.63660   1.000
    C128    C    0.33850   0.06520   0.62230   1.000
    H88     H    0.33340   0.05190   0.67430   1.000
    C129    C    0.30830   0.99810   0.57110   1.000
    C130    C    0.31950   0.01570   0.49590   1.000
    H89     H    0.30050   0.96920   0.45970   1.000
    C131    C    0.35810   0.10040   0.47300   1.000
    H90     H    0.36640   0.11100   0.42120   1.000
    C132    C    0.26130   0.91010   0.59820   1.000
    C133    C    0.92000   0.64860   0.35590   1.000
    C134    C    0.89600   0.56360   0.31650   1.000
    H91     H    0.92510   0.50330   0.31820   1.000
    C135    C    0.83010   0.56700   0.27500   1.000
    H92     H    0.81410   0.50840   0.24840   1.000
    C136    C    0.78630   0.65360   0.27100   1.000
    C137    C    0.81090   0.73870   0.30950   1.000
    H93     H    0.78210   0.79920   0.30700   1.000
    C138    C    0.87700   0.73600   0.35170   1.000
    H94     H    0.89310   0.79470   0.37800   1.000
    Cd4     Cd   0.13006   0.76358   0.58312   1.000
    N24     N    0.41830   0.26340   0.50140   1.000
    O19     O    0.20090   0.62560   0.59100   1.000
    O20     O    0.29559   0.65330   0.67102   1.000
    O21     O    0.62227   0.21660   0.21041   1.000
    O22     O    0.53490   0.32050   0.16580   1.000
    O23     O    0.26230   0.89260   0.66520   1.000
    O24     O    0.22470   0.86210   0.54870   1.000
    N25     N    0.07680   0.69400   0.48220   1.000
    C139    C    0.00660   0.70500   0.45800   1.000
    H95     H    0.97010   0.74600   0.48180   1.000
    N26     N    0.99280   0.65020   0.39440   1.000
    C140    C    0.06130   0.60260   0.37920   1.000
    H96     H    0.07050   0.55850   0.33840   1.000
    C141    C    0.11060   0.62930   0.43060   1.000
    H97     H    0.16180   0.60790   0.43270   1.000
    N27     N    0.06940   0.68640   0.49000   1.000
    C142    C    0.01780   0.71850   0.44160   1.000
    H98     H    0.00860   0.78730   0.42930   1.000
    N28     N    0.97970   0.63850   0.41190   1.000
    C143    C    0.00980   0.55060   0.44510   1.000
    H99     H    0.99350   0.48300   0.43720   1.000
    C144    C    0.06430   0.58100   0.48890   1.000
    H100    H    0.09670   0.53720   0.51670   1.000
    Cd5     Cd   0.75000   0.23092   0.25000   1.000
    Cd6     Cd   0.25000   0.76908   0.75000   1.000
