data_functionalizedCrystal
_audit_creation_method	'EQeq! by Chris Wilmer'
_symmetry_space_group_name_H-M	'P1'
_symmetry_Int_Tables_number	1
_symmetry_cell_setting	triclinic
loop_
_symmetry_equiv_pos_as_xyz
  x,y,z
_cell_length_a	15.2597
_cell_length_b	15.2597
_cell_length_c	19.0917
_cell_angle_alpha	90
_cell_angle_beta	90
_cell_angle_gamma	90
loop_
_atom_site_label
_atom_site_type_symbol
_atom_site_fract_x
_atom_site_fract_y
_atom_site_fract_z
_atom_site_charge
Mof_O 	O 	0.5758	0.6079	0.80757	-0.447
Mof_O 	O 	0.5779	0.6064	0.6903	-0.443
Mof_O 	O 	0.8914	0.9239	0.69135	-0.392
Mof_O 	O 	0.8937	0.9228	0.80711	-0.419
Mof_C 	C 	0.6009	0.636	0.7493	0.332
Mof_C 	C 	0.8637	0.898	0.7507	0.31
Mof_C 	C 	0.4678	0.4178	0.9616	0.071
Mof_H 	H 	0.5	0.3695	0.941	-0.063
Mof_H 	H 	0.4065	0.4108	0.9494	0.052
Mof_C 	C 	0.4392	0.5709	0.9594	-0.073
Mof_H 	H 	0.3824	0.5657	0.9369	0.01
Mof_H 	H 	0.5369	0.3718	0.9483	0.086
Mof_C 	C 	0.5851	0.5223	0.9593	-0.106
Mof_H 	H 	0.3954	0.4232	0.9383	-0.019
Mof_H 	H 	0.3733	0.5231	0.9468	0.064
Mof_C 	C 	0.5861	0.4771	0.5411	-0.213
Mof_H 	H 	0.3941	0.5774	0.562	-0.036
Mof_H 	H 	0.3721	0.4774	0.5529	0.122
Mof_C 	C 	0.4404	0.4281	0.5411	-0.069
Mof_H 	H 	0.3839	0.4312	0.5643	-0.01
Mof_H 	H 	0.534	0.6288	0.5508	0.141
Mof_C 	C 	0.4669	0.5802	0.5403	0.194
Mof_H 	H 	0.4977	0.6289	0.5617	-0.143
Mof_H 	H 	0.4053	0.5856	0.5523	0.084
Mof_C 	C 	0.6676	0.7116	0.7512	-0.017
Mof_C 	C 	0.6495	0.7804	0.6953	-0.001
Mof_H 	H 	0.5911	0.8041	0.7016	0.011
Mof_H 	H 	0.6524	0.7536	0.6493	0.004
Mof_C 	C 	0.7581	0.6693	0.7347	-0.047
Mof_H 	H 	0.7754	0.6307	0.7727	0.005
Mof_H 	H 	0.7545	0.635	0.6921	0.031
Mof_C 	C 	0.6733	0.7527	0.8231	-0.034
Mof_H 	H 	0.6836	0.7079	0.8582	0.036
Mof_H 	H 	0.6188	0.7824	0.8342	-0.008
Mof_C 	C 	0.7924	0.8298	0.7505	0.031
Mof_C 	C 	0.7182	0.8558	0.7002	-0.029
Mof_H 	H 	0.7422	0.8676	0.6542	0.058
Mof_H 	H 	0.69	0.9087	0.717	0.026
Mof_C 	C 	0.8257	0.7431	0.726	-0.031
Mof_H 	H 	0.8781	0.7282	0.7522	0.029
Mof_H 	H 	0.8418	0.7475	0.677	0.031
Mof_C 	C 	0.7498	0.8189	0.8224	-0.013
Mof_H 	H 	0.7283	0.8754	0.838	0.057
Mof_H 	H 	0.794	0.7997	0.8556	0.023
Mof_C 	C 	0.2915	0.3291	0.2511	-0.014
Mof_C 	C 	0.271	0.3006	0.3258	-0.065
Mof_C 	C 	0.3183	0.2456	0.2107	-0.026
Mof_C 	C 	0.208	0.3641	0.2198	-0.043
Mof_C 	C 	0.178	0.2564	0.323	-0.133
Mof_C 	C 	0.1711	0.2547	0.7679	-0.122
Mof_C 	C 	0.1497	0.2852	0.198	-0.138
Mof_C 	C 	0.1683	0.213	0.2515	-0.011
Mof_H 	H 	0.2705	0.3508	0.357	0.05
Mof_H 	H 	0.3146	0.2592	0.3424	0.04
Mof_H 	H 	0.3781	0.2296	0.2222	0.032
Mof_H 	H 	0.3147	0.2559	0.1606	0.026
Mof_H 	H 	0.2212	0.4	0.1792	0.049
Mof_H 	H 	0.1774	0.4001	0.2538	0.029
Mof_H 	H 	0.1726	0.213	0.3599	0.04
Mof_H 	H 	0.1326	0.3002	0.3295	0.032
Mof_H 	H 	0.1306	0.2467	0.8065	0.054
Mof_H 	H 	0.139	0.2782	0.7283	0.05
Mof_H 	H 	0.0882	0.3014	0.199	0.043
Mof_H 	H 	0.1645	0.2657	0.1511	0.036
Mof_O 	O 	0.4242	0.3921	0.80757	-0.448
Mof_O 	O 	0.4221	0.3936	0.6903	-0.444
Mof_O 	O 	0.1086	0.0761	0.69135	-0.472
Mof_O 	O 	0.1063	0.0772	0.80711	-0.468
Mof_C 	C 	0.3991	0.364	0.7493	0.328
Mof_C 	C 	0.1363	0.102	0.7507	0.332
Mof_C 	C 	0.5322	0.5822	0.9616	0.069
Mof_H 	H 	0.5	0.6305	0.941	-0.062
Mof_H 	H 	0.5935	0.5892	0.9494	0.053
Mof_C 	C 	0.5608	0.4291	0.9594	-0.073
Mof_H 	H 	0.6176	0.4343	0.9369	0.01
Mof_H 	H 	0.4631	0.6282	0.9483	0.086
Mof_C 	C 	0.4149	0.4777	0.9593	-0.105
Mof_H 	H 	0.6046	0.5768	0.9383	-0.018
Mof_H 	H 	0.6267	0.4769	0.9468	0.066
Mof_C 	C 	0.4139	0.5229	0.5411	-0.244
Mof_H 	H 	0.6059	0.4226	0.562	-0.028
Mof_H 	H 	0.6279	0.5226	0.5529	0.107
Mof_C 	C 	0.5596	0.5719	0.5411	-0.105
Mof_H 	H 	0.6161	0.5688	0.5643	0.011
Mof_H 	H 	0.466	0.3712	0.5508	0.108
Mof_C 	C 	0.5331	0.4198	0.5403	0.161
Mof_H 	H 	0.5023	0.3711	0.5617	-0.112
Mof_H 	H 	0.5947	0.4144	0.5523	0.073
Mof_C 	C 	0.3324	0.2884	0.7512	-0.012
Mof_C 	C 	0.3505	0.2196	0.6953	-0.007
Mof_H 	H 	0.4089	0.1959	0.7016	0.007
Mof_H 	H 	0.3476	0.2464	0.6493	0.001
Mof_C 	C 	0.2419	0.3307	0.7347	-0.044
Mof_H 	H 	0.2246	0.3693	0.7727	0.004
Mof_H 	H 	0.2455	0.365	0.6921	0.026
Mof_C 	C 	0.3267	0.2473	0.8231	-0.038
Mof_H 	H 	0.3164	0.2921	0.8582	0.034
Mof_H 	H 	0.3812	0.2176	0.8342	-0.004
Mof_C 	C 	0.2076	0.1702	0.7505	0.011
Mof_C 	C 	0.2818	0.1442	0.7002	0.003
Mof_H 	H 	0.2578	0.1324	0.6542	0.038
Mof_H 	H 	0.31	0.0913	0.717	0.005
Mof_C 	C 	0.1743	0.2569	0.726	-0.016
Mof_H 	H 	0.1219	0.2718	0.7522	0.015
Mof_H 	H 	0.1582	0.2525	0.677	0.012
Mof_C 	C 	0.2502	0.1811	0.8224	-0.003
Mof_H 	H 	0.2717	0.1246	0.838	0.045
Mof_H 	H 	0.206	0.2003	0.8556	0.016
Mof_C 	C 	0.7085	0.6709	0.2511	-0.019
Mof_C 	C 	0.729	0.6994	0.3258	-0.049
Mof_C 	C 	0.6817	0.7544	0.2107	-0.008
Mof_C 	C 	0.792	0.6359	0.2198	-0.032
Mof_C 	C 	0.822	0.7436	0.323	-0.162
Mof_C 	C 	0.8289	0.7453	0.7679	-0.145
Mof_C 	C 	0.8503	0.7148	0.198	-0.161
Mof_C 	C 	0.8317	0.787	0.2515	0.006
Mof_H 	H 	0.7295	0.6492	0.357	0.046
Mof_H 	H 	0.6854	0.7408	0.3424	0.04
Mof_H 	H 	0.6219	0.7704	0.2222	0.03
Mof_H 	H 	0.6853	0.7441	0.1606	0.022
Mof_H 	H 	0.7788	0.6	0.1792	0.054
Mof_H 	H 	0.8226	0.5999	0.2538	0.03
Mof_H 	H 	0.8274	0.787	0.3599	0.079
Mof_H 	H 	0.8674	0.6998	0.3295	0.057
Mof_H 	H 	0.8694	0.7533	0.8065	0.069
Mof_H 	H 	0.861	0.7218	0.7283	0.062
Mof_H 	H 	0.9118	0.6986	0.199	0.062
Mof_H 	H 	0.8355	0.7343	0.1511	0.046
Mof_O 	O 	0.8921	0.0758	0.30757	-0.454
Mof_O 	O 	0.8936	0.0779	0.1903	-0.439
Mof_O 	O 	0.5761	0.3914	0.19135	-0.441
Mof_O 	O 	0.5772	0.3937	0.30711	-0.452
Mof_C 	C 	0.864	0.1009	0.2493	0.33
Mof_C 	C 	0.602	0.3637	0.2507	0.324
Mof_C 	C 	0.0822	0.9678	0.4616	0.926
Mof_H 	H 	0.1305	0	0.441	-0.973
Mof_H 	H 	0.0892	0.9065	0.4494	0.589
Mof_C 	C 	0.9291	0.9392	0.4594	0.766
Mof_H 	H 	0.9343	0.8824	0.4369	-0.486
Mof_H 	H 	0.1282	0.0369	0.4483	0.965
Mof_C 	C 	0.9777	0.0851	0.4593	0.593
Mof_H 	H 	0.0768	0.8954	0.4383	-0.492
Mof_H 	H 	0.9769	0.8733	0.4468	0.588
Mof_C 	C 	0.0229	0.0861	0.0411	-0.123
Mof_H 	H 	0.9226	0.8941	0.062	-0.087
Mof_H 	H 	0.0226	0.8721	0.0529	0.136
Mof_C 	C 	0.0719	0.9404	0.0411	0.084
Mof_H 	H 	0.0688	0.8839	0.0643	-0.065
Mof_H 	H 	0.8712	0.034	0.0508	0.162
Mof_C 	C 	0.9198	0.9669	0.0403	0.303
Mof_H 	H 	0.8711	0.9977	0.0617	-0.16
Mof_H 	H 	0.9144	0.9053	0.0523	0.13
Mof_C 	C 	0.7884	0.1676	0.2512	-0.015
Mof_C 	C 	0.7196	0.1495	0.1953	-0
Mof_H 	H 	0.6959	0.0911	0.2016	0.002
Mof_H 	H 	0.7464	0.1524	0.1493	0.004
Mof_C 	C 	0.8307	0.2581	0.2347	-0.042
Mof_H 	H 	0.8693	0.2754	0.2727	0.009
Mof_H 	H 	0.865	0.2545	0.1921	0.032
Mof_C 	C 	0.7473	0.1733	0.3231	-0.029
Mof_H 	H 	0.7921	0.1836	0.3582	0.03
Mof_H 	H 	0.7176	0.1188	0.3342	-0.01
Mof_C 	C 	0.6702	0.2924	0.2505	0.021
Mof_C 	C 	0.6442	0.2182	0.2002	-0.015
Mof_H 	H 	0.6324	0.2422	0.1542	0.046
Mof_H 	H 	0.5913	0.19	0.217	0.013
Mof_C 	C 	0.7569	0.3257	0.226	-0.022
Mof_H 	H 	0.7718	0.3781	0.2522	0.024
Mof_H 	H 	0.7525	0.3418	0.177	0.023
Mof_C 	C 	0.6811	0.2498	0.3224	-0.005
Mof_H 	H 	0.6246	0.2283	0.338	0.051
Mof_H 	H 	0.7003	0.294	0.3556	0.02
Mof_C 	C 	0.1709	0.7915	0.7511	-0.017
Mof_C 	C 	0.1994	0.771	0.8258	-0.061
Mof_C 	C 	0.2544	0.8183	0.7107	-0.023
Mof_C 	C 	0.1359	0.708	0.7198	-0.043
Mof_C 	C 	0.2436	0.678	0.823	-0.143
Mof_C 	C 	0.2453	0.6711	0.2679	-0.131
Mof_C 	C 	0.2148	0.6497	0.698	-0.149
Mof_C 	C 	0.287	0.6683	0.7515	-0.003
Mof_H 	H 	0.1492	0.7705	0.857	0.044
Mof_H 	H 	0.2408	0.8146	0.8424	0.042
Mof_H 	H 	0.2704	0.8781	0.7222	0.033
Mof_H 	H 	0.2441	0.8147	0.6606	0.027
Mof_H 	H 	0.1	0.7212	0.6792	0.05
Mof_H 	H 	0.0999	0.6774	0.7538	0.028
Mof_H 	H 	0.287	0.6726	0.8599	0.06
Mof_H 	H 	0.1998	0.6326	0.8295	0.043
Mof_H 	H 	0.2533	0.6306	0.3065	0.06
Mof_H 	H 	0.2218	0.639	0.2283	0.057
Mof_H 	H 	0.1986	0.5882	0.699	0.05
Mof_H 	H 	0.2343	0.6645	0.6511	0.038
Mof_O 	O 	0.1079	0.9242	0.30757	-0.413
Mof_O 	O 	0.1064	0.9221	0.1903	-0.429
Mof_O 	O 	0.4239	0.6086	0.19135	-0.441
Mof_O 	O 	0.4228	0.6063	0.30711	-0.452
Mof_C 	C 	0.136	0.8991	0.2493	0.319
Mof_C 	C 	0.398	0.6363	0.2507	0.324
Mof_C 	C 	0.9178	0.0322	0.4616	-0.528
Mof_H 	H 	0.8695	0	0.441	0.534
Mof_H 	H 	0.9108	0.0935	0.4494	-0.348
Mof_C 	C 	0.0709	0.0608	0.4594	-1.044
Mof_H 	H 	0.0657	0.1176	0.4369	0.517
Mof_H 	H 	0.8718	0.9631	0.4483	-0.535
Mof_C 	C 	0.0223	0.9149	0.4593	-0.911
Mof_H 	H 	0.9232	0.1046	0.4383	0.297
Mof_H 	H 	0.0231	0.1267	0.4468	-0.398
Mof_C 	C 	0.9771	0.9139	0.0411	-0.292
Mof_H 	H 	0.0774	0.1059	0.062	0.017
Mof_H 	H 	0.9774	0.1279	0.0529	0.079
Mof_C 	C 	0.9281	0.0596	0.0411	-0.228
Mof_H 	H 	0.9312	0.1161	0.0643	0.066
Mof_H 	H 	0.1288	0.966	0.0508	0.073
Mof_C 	C 	0.0802	0.0331	0.0403	0.05
Mof_H 	H 	0.1289	0.0023	0.0617	-0.084
Mof_H 	H 	0.0856	0.0947	0.0523	0.024
Mof_C 	C 	0.2116	0.8324	0.2512	-0.013
Mof_C 	C 	0.2804	0.8505	0.1953	-0.008
Mof_H 	H 	0.3041	0.9089	0.2016	0.017
Mof_H 	H 	0.2536	0.8476	0.1493	0.001
Mof_C 	C 	0.1693	0.7419	0.2347	-0.051
Mof_H 	H 	0.1307	0.7246	0.2727	0.002
Mof_H 	H 	0.135	0.7455	0.1921	0.026
Mof_C 	C 	0.2527	0.8267	0.3231	-0.045
Mof_H 	H 	0.2079	0.8164	0.3582	0.045
Mof_H 	H 	0.2824	0.8812	0.3342	-0.001
Mof_C 	C 	0.3298	0.7076	0.2505	0.021
Mof_C 	C 	0.3558	0.7818	0.2002	-0.011
Mof_H 	H 	0.3676	0.7578	0.1542	0.049
Mof_H 	H 	0.4087	0.81	0.217	0.017
Mof_C 	C 	0.2431	0.6743	0.226	-0.024
Mof_H 	H 	0.2282	0.6219	0.2522	0.019
Mof_H 	H 	0.2475	0.6582	0.177	0.02
Mof_C 	C 	0.3189	0.7502	0.3224	-0.009
Mof_H 	H 	0.3754	0.7717	0.338	0.05
Mof_H 	H 	0.2997	0.706	0.3556	0.02
Mof_C 	C 	0.8291	0.2085	0.7511	-0.014
Mof_C 	C 	0.8006	0.229	0.8258	-0.055
Mof_C 	C 	0.7456	0.1817	0.7107	-0.011
Mof_C 	C 	0.8641	0.292	0.7198	-0.034
Mof_C 	C 	0.7564	0.322	0.823	-0.15
Mof_C 	C 	0.7547	0.3289	0.2679	-0.134
Mof_C 	C 	0.7852	0.3503	0.698	-0.149
Mof_C 	C 	0.713	0.3317	0.7515	-0.003
Mof_H 	H 	0.8508	0.2295	0.857	0.053
Mof_H 	H 	0.7592	0.1854	0.8424	0.038
Mof_H 	H 	0.7296	0.1219	0.7222	0.03
Mof_H 	H 	0.7559	0.1853	0.6606	0.022
Mof_H 	H 	0.9	0.2788	0.6792	0.056
Mof_H 	H 	0.9001	0.3226	0.7538	0.032
Mof_H 	H 	0.713	0.3274	0.8599	0.061
Mof_H 	H 	0.8002	0.3674	0.8295	0.046
Mof_H 	H 	0.7467	0.3694	0.3065	0.063
Mof_H 	H 	0.7782	0.361	0.2283	0.055
Mof_H 	H 	0.8014	0.4118	0.699	0.055
Mof_H 	H 	0.7657	0.3355	0.6511	0.043
Mof_O 	O 	0.9242	0.1079	0.69243	-0.413
Mof_O 	O 	0.9221	0.1064	0.8097	-0.429
Mof_O 	O 	0.6086	0.4239	0.80865	-0.441
Mof_O 	O 	0.6063	0.4228	0.69289	-0.452
Mof_C 	C 	0.8991	0.136	0.7507	0.319
Mof_C 	C 	0.6363	0.398	0.7493	0.324
Mof_C 	C 	0.0322	0.9178	0.5384	-0.528
Mof_H 	H 	1.9657e-32	0.8695	0.559	0.534
Mof_H 	H 	0.0935	0.9108	0.5506	-0.348
Mof_C 	C 	0.0608	0.0709	0.5406	-1.044
Mof_H 	H 	0.1176	0.0657	0.5631	0.517
Mof_H 	H 	0.9631	0.8718	0.5517	-0.535
Mof_C 	C 	0.9149	0.0223	0.5407	-0.911
Mof_H 	H 	0.1046	0.9232	0.5617	0.297
Mof_H 	H 	0.1267	0.0231	0.5532	-0.398
Mof_C 	C 	0.9139	0.9771	0.9589	-0.292
Mof_H 	H 	0.1059	0.0774	0.938	0.017
Mof_H 	H 	0.1279	0.9774	0.9471	0.079
Mof_C 	C 	0.0596	0.9281	0.9589	-0.228
Mof_H 	H 	0.1161	0.9312	0.9357	0.066
Mof_H 	H 	0.966	0.1288	0.9492	0.073
Mof_C 	C 	0.0331	0.0802	0.9597	0.05
Mof_H 	H 	0.0023	0.1289	0.9383	-0.084
Mof_H 	H 	0.0947	0.0856	0.9477	0.024
Mof_C 	C 	0.8324	0.2116	0.7488	-0.013
Mof_C 	C 	0.8505	0.2804	0.8047	-0.008
Mof_H 	H 	0.9089	0.3041	0.7984	0.017
Mof_H 	H 	0.8476	0.2536	0.8507	0.001
Mof_C 	C 	0.7419	0.1693	0.7653	-0.051
Mof_H 	H 	0.7246	0.1307	0.7273	0.002
Mof_H 	H 	0.7455	0.135	0.8079	0.026
Mof_C 	C 	0.8267	0.2527	0.6769	-0.045
Mof_H 	H 	0.8164	0.2079	0.6418	0.045
Mof_H 	H 	0.8812	0.2824	0.6658	-0.001
Mof_C 	C 	0.7076	0.3298	0.7495	0.021
Mof_C 	C 	0.7818	0.3558	0.7998	-0.011
Mof_H 	H 	0.7578	0.3676	0.8458	0.049
Mof_H 	H 	0.81	0.4087	0.783	0.017
Mof_C 	C 	0.6743	0.2431	0.774	-0.024
Mof_H 	H 	0.6219	0.2282	0.7478	0.019
Mof_H 	H 	0.6582	0.2475	0.823	0.02
Mof_C 	C 	0.7502	0.3189	0.6776	-0.009
Mof_H 	H 	0.7717	0.3754	0.662	0.05
Mof_H 	H 	0.706	0.2997	0.6444	0.02
Mof_C 	C 	0.2085	0.8291	0.2489	-0.014
Mof_C 	C 	0.229	0.8006	0.1742	-0.055
Mof_C 	C 	0.1817	0.7456	0.2893	-0.011
Mof_C 	C 	0.292	0.8641	0.2802	-0.034
Mof_C 	C 	0.322	0.7564	0.177	-0.15
Mof_C 	C 	0.3289	0.7547	0.7321	-0.134
Mof_C 	C 	0.3503	0.7852	0.302	-0.149
Mof_C 	C 	0.3317	0.713	0.2485	-0.003
Mof_H 	H 	0.2295	0.8508	0.143	0.053
Mof_H 	H 	0.1854	0.7592	0.1576	0.038
Mof_H 	H 	0.1219	0.7296	0.2778	0.03
Mof_H 	H 	0.1853	0.7559	0.3394	0.022
Mof_H 	H 	0.2788	0.9	0.3208	0.056
Mof_H 	H 	0.3226	0.9001	0.2462	0.032
Mof_H 	H 	0.3274	0.713	0.1401	0.061
Mof_H 	H 	0.3674	0.8002	0.1705	0.046
Mof_H 	H 	0.3694	0.7467	0.6935	0.063
Mof_H 	H 	0.361	0.7782	0.7717	0.055
Mof_H 	H 	0.4118	0.8014	0.301	0.055
Mof_H 	H 	0.3355	0.7657	0.3489	0.043
Mof_O 	O 	0.0758	0.8921	0.69243	-0.454
Mof_O 	O 	0.0779	0.8936	0.8097	-0.439
Mof_O 	O 	0.3914	0.5761	0.80865	-0.441
Mof_O 	O 	0.3937	0.5772	0.69289	-0.452
Mof_C 	C 	0.1009	0.864	0.7507	0.33
Mof_C 	C 	0.3637	0.602	0.7493	0.324
Mof_C 	C 	0.9678	0.0822	0.5384	0.926
Mof_H 	H 	-3.056e-33	0.1305	0.559	-0.973
Mof_H 	H 	0.9065	0.0892	0.5506	0.589
Mof_C 	C 	0.9392	0.9291	0.5406	0.766
Mof_H 	H 	0.8824	0.9343	0.5631	-0.486
Mof_H 	H 	0.0369	0.1282	0.5517	0.965
Mof_C 	C 	0.0851	0.9777	0.5407	0.593
Mof_H 	H 	0.8954	0.0768	0.5617	-0.492
Mof_H 	H 	0.8733	0.9769	0.5532	0.588
Mof_C 	C 	0.0861	0.0229	0.9589	-0.123
Mof_H 	H 	0.8941	0.9226	0.938	-0.087
Mof_H 	H 	0.8721	0.0226	0.9471	0.136
Mof_C 	C 	0.9404	0.0719	0.9589	0.084
Mof_H 	H 	0.8839	0.0688	0.9357	-0.065
Mof_H 	H 	0.034	0.8712	0.9492	0.162
Mof_C 	C 	0.9669	0.9198	0.9597	0.303
Mof_H 	H 	0.9977	0.8711	0.9383	-0.16
Mof_H 	H 	0.9053	0.9144	0.9477	0.13
Mof_C 	C 	0.1676	0.7884	0.7488	-0.015
Mof_C 	C 	0.1495	0.7196	0.8047	-0
Mof_H 	H 	0.0911	0.6959	0.7984	0.002
Mof_H 	H 	0.1524	0.7464	0.8507	0.004
Mof_C 	C 	0.2581	0.8307	0.7653	-0.042
Mof_H 	H 	0.2754	0.8693	0.7273	0.009
Mof_H 	H 	0.2545	0.865	0.8079	0.032
Mof_C 	C 	0.1733	0.7473	0.6769	-0.029
Mof_H 	H 	0.1836	0.7921	0.6418	0.03
Mof_H 	H 	0.1188	0.7176	0.6658	-0.01
Mof_C 	C 	0.2924	0.6702	0.7495	0.021
Mof_C 	C 	0.2182	0.6442	0.7998	-0.015
Mof_H 	H 	0.2422	0.6324	0.8458	0.046
Mof_H 	H 	0.19	0.5913	0.783	0.013
Mof_C 	C 	0.3257	0.7569	0.774	-0.022
Mof_H 	H 	0.3781	0.7718	0.7478	0.024
Mof_H 	H 	0.3418	0.7525	0.823	0.023
Mof_C 	C 	0.2498	0.6811	0.6776	-0.005
Mof_H 	H 	0.2283	0.6246	0.662	0.051
Mof_H 	H 	0.294	0.7003	0.6444	0.02
Mof_C 	C 	0.7915	0.1709	0.2489	-0.017
Mof_C 	C 	0.771	0.1994	0.1742	-0.061
Mof_C 	C 	0.8183	0.2544	0.2893	-0.023
Mof_C 	C 	0.708	0.1359	0.2802	-0.043
Mof_C 	C 	0.678	0.2436	0.177	-0.143
Mof_C 	C 	0.6711	0.2453	0.7321	-0.131
Mof_C 	C 	0.6497	0.2148	0.302	-0.149
Mof_C 	C 	0.6683	0.287	0.2485	-0.003
Mof_H 	H 	0.7705	0.1492	0.143	0.044
Mof_H 	H 	0.8146	0.2408	0.1576	0.042
Mof_H 	H 	0.8781	0.2704	0.2778	0.033
Mof_H 	H 	0.8147	0.2441	0.3394	0.027
Mof_H 	H 	0.7212	0.1	0.3208	0.05
Mof_H 	H 	0.6774	0.0999	0.2462	0.028
Mof_H 	H 	0.6726	0.287	0.1401	0.06
Mof_H 	H 	0.6326	0.1998	0.1705	0.043
Mof_H 	H 	0.6306	0.2533	0.6935	0.06
Mof_H 	H 	0.639	0.2218	0.7717	0.057
Mof_H 	H 	0.5882	0.1986	0.301	0.05
Mof_H 	H 	0.6645	0.2343	0.3489	0.038
Mof_O 	O 	0.6079	0.5758	0.19243	-0.448
Mof_O 	O 	0.6064	0.5779	0.3097	-0.444
Mof_O 	O 	0.9239	0.8914	0.30865	-0.393
Mof_O 	O 	0.9228	0.8937	0.19289	-0.42
Mof_C 	C 	0.636	0.6009	0.2507	0.331
Mof_C 	C 	0.898	0.8637	0.2493	0.309
Mof_C 	C 	0.4178	0.4678	0.0384	0.07
Mof_H 	H 	0.3695	0.5	0.059	-0.064
Mof_H 	H 	0.4108	0.4065	0.0506	0.052
Mof_C 	C 	0.5709	0.4392	0.0406	-0.073
Mof_H 	H 	0.5657	0.3824	0.0631	0.01
Mof_H 	H 	0.3718	0.5369	0.0517	0.086
Mof_C 	C 	0.5223	0.5851	0.0407	-0.106
Mof_H 	H 	0.4232	0.3954	0.0617	-0.019
Mof_H 	H 	0.5231	0.3733	0.0532	0.064
Mof_C 	C 	0.4771	0.5861	0.4589	-0.213
Mof_H 	H 	0.5774	0.3941	0.438	-0.036
Mof_H 	H 	0.4774	0.3721	0.4471	0.122
Mof_C 	C 	0.4281	0.4404	0.4589	-0.069
Mof_H 	H 	0.4312	0.3839	0.4357	-0.01
Mof_H 	H 	0.6288	0.534	0.4492	0.141
Mof_C 	C 	0.5802	0.4669	0.4597	0.194
Mof_H 	H 	0.6289	0.4977	0.4383	-0.143
Mof_H 	H 	0.5856	0.4053	0.4477	0.084
Mof_C 	C 	0.7116	0.6676	0.2488	-0.017
Mof_C 	C 	0.7804	0.6495	0.3047	-0.001
Mof_H 	H 	0.8041	0.5911	0.2984	0.011
Mof_H 	H 	0.7536	0.6524	0.3507	0.004
Mof_C 	C 	0.6693	0.7581	0.2653	-0.047
Mof_H 	H 	0.6307	0.7754	0.2273	0.005
Mof_H 	H 	0.635	0.7545	0.3079	0.031
Mof_C 	C 	0.7527	0.6733	0.1769	-0.034
Mof_H 	H 	0.7079	0.6836	0.1418	0.036
Mof_H 	H 	0.7824	0.6188	0.1658	-0.008
Mof_C 	C 	0.8298	0.7924	0.2495	0.031
Mof_C 	C 	0.8558	0.7182	0.2998	-0.029
Mof_H 	H 	0.8676	0.7422	0.3458	0.058
Mof_H 	H 	0.9087	0.69	0.283	0.026
Mof_C 	C 	0.7431	0.8257	0.274	-0.031
Mof_H 	H 	0.7282	0.8781	0.2478	0.029
Mof_H 	H 	0.7475	0.8418	0.323	0.031
Mof_C 	C 	0.8189	0.7498	0.1776	-0.013
Mof_H 	H 	0.8754	0.7283	0.162	0.057
Mof_H 	H 	0.7997	0.794	0.1444	0.023
Mof_C 	C 	0.3291	0.2915	0.7489	-0.014
Mof_C 	C 	0.3006	0.271	0.6742	-0.065
Mof_C 	C 	0.2456	0.3183	0.7893	-0.026
Mof_C 	C 	0.3641	0.208	0.7802	-0.043
Mof_C 	C 	0.2564	0.178	0.677	-0.133
Mof_C 	C 	0.2547	0.1711	0.2321	-0.122
Mof_C 	C 	0.2852	0.1497	0.802	-0.138
Mof_C 	C 	0.213	0.1683	0.7485	-0.011
Mof_H 	H 	0.3508	0.2705	0.643	0.05
Mof_H 	H 	0.2592	0.3146	0.6576	0.04
Mof_H 	H 	0.2296	0.3781	0.7778	0.032
Mof_H 	H 	0.2559	0.3147	0.8394	0.026
Mof_H 	H 	0.4	0.2212	0.8208	0.049
Mof_H 	H 	0.4001	0.1774	0.7462	0.029
Mof_H 	H 	0.213	0.1726	0.6401	0.04
Mof_H 	H 	0.3002	0.1326	0.6705	0.032
Mof_H 	H 	0.2467	0.1306	0.1935	0.054
Mof_H 	H 	0.2782	0.139	0.2717	0.05
Mof_H 	H 	0.3014	0.0882	0.801	0.043
Mof_H 	H 	0.2657	0.1645	0.8489	0.036
Mof_O 	O 	0.3921	0.4242	0.19243	-0.448
Mof_O 	O 	0.3936	0.4221	0.3097	-0.444
Mof_O 	O 	0.0761	0.1086	0.30865	-0.472
Mof_O 	O 	0.0772	0.1063	0.19289	-0.468
Mof_C 	C 	0.364	0.3991	0.2507	0.328
Mof_C 	C 	0.102	0.1363	0.2493	0.332
Mof_C 	C 	0.5822	0.5322	0.0384	0.069
Mof_H 	H 	0.6305	0.5	0.059	-0.062
Mof_H 	H 	0.5892	0.5935	0.0506	0.053
Mof_C 	C 	0.4291	0.5608	0.0406	-0.073
Mof_H 	H 	0.4343	0.6176	0.0631	0.01
Mof_H 	H 	0.6282	0.4631	0.0517	0.086
Mof_C 	C 	0.4777	0.4149	0.0407	-0.105
Mof_H 	H 	0.5768	0.6046	0.0617	-0.018
Mof_H 	H 	0.4769	0.6267	0.0532	0.066
Mof_C 	C 	0.5229	0.4139	0.4589	-0.244
Mof_H 	H 	0.4226	0.6059	0.438	-0.028
Mof_H 	H 	0.5226	0.6279	0.4471	0.107
Mof_C 	C 	0.5719	0.5596	0.4589	-0.105
Mof_H 	H 	0.5688	0.6161	0.4357	0.011
Mof_H 	H 	0.3712	0.466	0.4492	0.108
Mof_C 	C 	0.4198	0.5331	0.4597	0.161
Mof_H 	H 	0.3711	0.5023	0.4383	-0.112
Mof_H 	H 	0.4144	0.5947	0.4477	0.073
Mof_C 	C 	0.2884	0.3324	0.2488	-0.012
Mof_C 	C 	0.2196	0.3505	0.3047	-0.007
Mof_H 	H 	0.1959	0.4089	0.2984	0.007
Mof_H 	H 	0.2464	0.3476	0.3507	0.001
Mof_C 	C 	0.3307	0.2419	0.2653	-0.044
Mof_H 	H 	0.3693	0.2246	0.2273	0.004
Mof_H 	H 	0.365	0.2455	0.3079	0.026
Mof_C 	C 	0.2473	0.3267	0.1769	-0.038
Mof_H 	H 	0.2921	0.3164	0.1418	0.034
Mof_H 	H 	0.2176	0.3812	0.1658	-0.004
Mof_C 	C 	0.1702	0.2076	0.2495	0.011
Mof_C 	C 	0.1442	0.2818	0.2998	0.003
Mof_H 	H 	0.1324	0.2578	0.3458	0.038
Mof_H 	H 	0.0913	0.31	0.283	0.005
Mof_C 	C 	0.2569	0.1743	0.274	-0.016
Mof_H 	H 	0.2718	0.1219	0.2478	0.015
Mof_H 	H 	0.2525	0.1582	0.323	0.012
Mof_C 	C 	0.1811	0.2502	0.1776	-0.003
Mof_H 	H 	0.1246	0.2717	0.162	0.045
Mof_H 	H 	0.2003	0.206	0.1444	0.016
Mof_C 	C 	0.6709	0.7085	0.7489	-0.019
Mof_C 	C 	0.6994	0.729	0.6742	-0.049
Mof_C 	C 	0.7544	0.6817	0.7893	-0.008
Mof_C 	C 	0.6359	0.792	0.7802	-0.032
Mof_C 	C 	0.7436	0.822	0.677	-0.162
Mof_C 	C 	0.7453	0.8289	0.2321	-0.145
Mof_C 	C 	0.7148	0.8503	0.802	-0.161
Mof_C 	C 	0.787	0.8317	0.7485	0.006
Mof_H 	H 	0.6492	0.7295	0.643	0.046
Mof_H 	H 	0.7408	0.6854	0.6576	0.04
Mof_H 	H 	0.7704	0.6219	0.7778	0.03
Mof_H 	H 	0.7441	0.6853	0.8394	0.022
Mof_H 	H 	0.6	0.7788	0.8208	0.054
Mof_H 	H 	0.5999	0.8226	0.7462	0.03
Mof_H 	H 	0.787	0.8274	0.6401	0.079
Mof_H 	H 	0.6998	0.8674	0.6705	0.057
Mof_H 	H 	0.7533	0.8694	0.1935	0.069
Mof_H 	H 	0.7218	0.861	0.2717	0.062
Mof_H 	H 	0.6986	0.9118	0.801	0.062
Mof_H 	H 	0.7343	0.8355	0.8489	0.046
Mof_Co	Co	0.5	0.5	0.82118	1.143
Mof_Co	Co	0.5	0.5	0.67873	1.148
Mof_N 	N 	0.5	0.5	0.9327	-0.167
Mof_N 	N 	0.5	0.5	0.5685	-0.165
Mof_Co	Co	-1.33248e-33	0	0.32118	1.119
Mof_Co	Co	8.38413e-34	0	0.17873	1.121
Mof_N 	N 	2.02977e-33	0	0.4327	-0.203
Mof_N 	N 	3.2133e-34	0	0.0685	-0.21
Mof_Co	Co	3.18431e-33	0	0.67882	1.119
Mof_Co	Co	3.85253e-33	0	0.82127	1.121
Mof_N 	N 	-3.01707e-33	-5.67824e-33	0.5673	-0.203
Mof_N 	N 	4.36962e-33	0	0.9315	-0.21
Mof_Co	Co	0.5	0.5	0.17882	1.143
Mof_Co	Co	0.5	0.5	0.32127	1.148
Mof_N 	N 	0.5	0.5	0.0673	-0.167
Mof_N 	N 	0.5	0.5	0.4315	-0.165
_end
