# CIF file generated by openbabel 2.4.1, see http://openbabel.sf.net
data_I
_chemical_name_common 'image0'
_cell_length_a 30.664
_cell_length_b 17.225
_cell_length_c 27.371
_cell_angle_alpha 90
_cell_angle_beta 105.9
_cell_angle_gamma 90
_space_group_name_H-M_alt 'P 1'
_space_group_name_Hall 'P 1'
loop_
    _symmetry_equiv_pos_as_xyz
    x,y,z
loop_
    _atom_site_label
    _atom_site_type_symbol
    _atom_site_fract_x
    _atom_site_fract_y
    _atom_site_fract_z
    _atom_site_occupancy
    Cd1     Cd   0.37079   0.76297   0.14349   1.000
    C1      C    0.28802   0.95090   0.22700   1.000
    N1      N    0.26840   0.92620   0.17920   1.000
    C2      C    0.29248   0.88370   0.15426   1.000
    N2      N    0.33618   0.86600   0.17710   1.000
    C3      C    0.35581   0.89060   0.22490   1.000
    N3      N    0.33172   0.93310   0.24982   1.000
    C4      C    0.23090   0.87940   0.07320   1.000
    C5      C    0.20860   0.95260   0.07870   1.000
    H1      H    0.21960   0.98430   0.10690   1.000
    C6      C    0.16940   0.97350   0.03910   1.000
    H2      H    0.15540   0.02110   0.04000   1.000
    C7      C    0.15160   0.92110   0.99800   1.000
    H3      H    0.12600   0.93470   0.97220   1.000
    C8      C    0.17300   0.84790   0.99650   1.000
    C9      C    0.15770   0.80180   0.94800   1.000
    C10     C    0.22280   0.03640   0.23240   1.000
    C11     C    0.18910   0.00140   0.19260   1.000
    H4      H    0.19700   0.96180   0.17340   1.000
    C12     C    0.14350   0.02650   0.18190   1.000
    H5      H    0.12140   0.00350   0.15570   1.000
    C13     C    0.13160   0.08670   0.21100   1.000
    H6      H    0.10170   0.10320   0.20400   1.000
    C14     C    0.15440   0.15990   0.29620   1.000
    C15     C    0.43150   0.91320   0.28880   1.000
    C16     C    0.42390   0.97130   0.32010   1.000
    H7      H    0.39560   0.99500   0.31320   1.000
    C17     C    0.55140   0.84740   0.35450   1.000
    N4      N    0.27800   0.87850   0.09990   1.000
    N5      N    0.27100   0.00970   0.24880   1.000
    N6      N    0.40160   0.89180   0.23700   1.000
    O1      O    0.18082   0.74730   0.94208   1.000
    O2      O    0.12168   0.82540   0.91700   1.000
    O3      O    0.11373   0.18120   0.28570   1.000
    O4      O    0.18500   0.18200   0.33170   1.000
    O5      O    0.55650   0.80120   0.32210   1.000
    O6      O    0.58090   0.86400   0.39370   1.000
    C18     C    0.50010   0.95910   0.37170   1.000
    H8      H    0.52330   0.97470   0.39980   1.000
    C19     C    0.50770   0.90110   0.34040   1.000
    C20     C    0.47340   0.87810   0.29890   1.000
    H9      H    0.47850   0.83890   0.27780   1.000
    C21     C    0.45820   0.99420   0.36160   1.000
    H10     H    0.45310   0.03340   0.38270   1.000
    C22     C    0.16530   0.12180   0.25080   1.000
    C23     C    0.21090   0.09660   0.26150   1.000
    H11     H    0.23300   0.11970   0.28770   1.000
    C24     C    0.21230   0.82710   0.03610   1.000
    H12     H    0.22500   0.77800   0.03650   1.000
    C25     C    0.22940   0.87930   0.07300   1.000
    C26     C    0.19460   0.91190   0.09410   1.000
    H13     H    0.20230   0.92980   0.12740   1.000
    C27     C    0.14780   0.91650   0.06290   1.000
    H14     H    0.12560   0.93730   0.07640   1.000
    C28     C    0.13570   0.88850   0.01070   1.000
    H15     H    0.10670   0.89240   0.98890   1.000
    C29     C    0.17480   0.85240   0.99530   1.000
    C30     C    0.21780   0.99650   0.24910   1.000
    C31     C    0.18240   0.95770   0.21320   1.000
    H16     H    0.18890   0.91530   0.19530   1.000
    C32     C    0.13700   0.98340   0.20440   1.000
    H17     H    0.11380   0.95790   0.18080   1.000
    C33     C    0.12710   0.04790   0.23160   1.000
    H18     H    0.09730   0.06480   0.22590   1.000
    C34     C    0.42530   0.87990   0.29710   1.000
    C35     C    0.41340   0.92960   0.33590   1.000
    H19     H    0.38420   0.94810   0.33220   1.000
    N7      N    0.27070   0.84410   0.11140   1.000
    N8      N    0.26240   0.96980   0.26200   1.000
    N9      N    0.39600   0.85680   0.24920   1.000
    C36     C    0.49220   0.91880   0.39030   1.000
    H20     H    0.51410   0.92880   0.42060   1.000
    C37     C    0.50120   0.87160   0.35140   1.000
    C38     C    0.46750   0.84700   0.30900   1.000
    H21     H    0.47370   0.80780   0.28850   1.000
    C39     C    0.45100   0.94730   0.38040   1.000
    H22     H    0.44520   0.98190   0.40400   1.000
    C40     C    0.16250   0.08670   0.26750   1.000
    C41     C    0.20780   0.06100   0.27630   1.000
    H23     H    0.23110   0.08640   0.29990   1.000
    C42     C    0.21730   0.85130   0.02070   1.000
    H24     H    0.23940   0.83320   0.00610   1.000
    Cd2     Cd   0.87079   0.26297   0.14349   1.000
    C43     C    0.78802   0.45090   0.22700   1.000
    N10     N    0.76840   0.42620   0.17920   1.000
    C44     C    0.79248   0.38370   0.15426   1.000
    N11     N    0.83618   0.36600   0.17710   1.000
    C45     C    0.85581   0.39060   0.22490   1.000
    N12     N    0.83172   0.43310   0.24982   1.000
    C46     C    0.73090   0.37940   0.07320   1.000
    C47     C    0.70860   0.45260   0.07870   1.000
    H25     H    0.71960   0.48430   0.10690   1.000
    C48     C    0.66940   0.47350   0.03910   1.000
    H26     H    0.65540   0.52110   0.04000   1.000
    C49     C    0.65160   0.42110   0.99800   1.000
    H27     H    0.62600   0.43470   0.97220   1.000
    C50     C    0.67300   0.34790   0.99650   1.000
    C51     C    0.65770   0.30180   0.94800   1.000
    C52     C    0.72280   0.53640   0.23240   1.000
    C53     C    0.68910   0.50140   0.19260   1.000
    H28     H    0.69700   0.46180   0.17340   1.000
    C54     C    0.64350   0.52650   0.18190   1.000
    H29     H    0.62140   0.50350   0.15570   1.000
    C55     C    0.63160   0.58670   0.21100   1.000
    H30     H    0.60170   0.60320   0.20400   1.000
    C56     C    0.65440   0.65990   0.29620   1.000
    C57     C    0.93150   0.41320   0.28880   1.000
    C58     C    0.92390   0.47130   0.32010   1.000
    H31     H    0.89560   0.49500   0.31320   1.000
    C59     C    0.05140   0.34740   0.35450   1.000
    N13     N    0.77800   0.37850   0.09990   1.000
    N14     N    0.77100   0.50970   0.24880   1.000
    N15     N    0.90160   0.39180   0.23700   1.000
    O7      O    0.68082   0.24730   0.94208   1.000
    O8      O    0.62168   0.32540   0.91700   1.000
    O9      O    0.61373   0.68120   0.28570   1.000
    O10     O    0.68500   0.68200   0.33170   1.000
    O11     O    0.05650   0.30120   0.32210   1.000
    O12     O    0.08090   0.36400   0.39370   1.000
    C60     C    0.00010   0.45910   0.37170   1.000
    H32     H    0.02330   0.47470   0.39980   1.000
    C61     C    0.00770   0.40110   0.34040   1.000
    C62     C    0.97340   0.37810   0.29890   1.000
    H33     H    0.97850   0.33890   0.27780   1.000
    C63     C    0.95820   0.49420   0.36160   1.000
    H34     H    0.95310   0.53340   0.38270   1.000
    C64     C    0.66530   0.62180   0.25080   1.000
    C65     C    0.71090   0.59660   0.26150   1.000
    H35     H    0.73300   0.61970   0.28770   1.000
    C66     C    0.71230   0.32710   0.03610   1.000
    H36     H    0.72500   0.27800   0.03650   1.000
    C67     C    0.72940   0.37930   0.07300   1.000
    C68     C    0.69460   0.41190   0.09410   1.000
    H37     H    0.70230   0.42980   0.12740   1.000
    C69     C    0.64780   0.41650   0.06290   1.000
    H38     H    0.62560   0.43730   0.07640   1.000
    C70     C    0.63570   0.38850   0.01070   1.000
    H39     H    0.60670   0.39240   0.98890   1.000
    C71     C    0.67480   0.35240   0.99530   1.000
    C72     C    0.71780   0.49650   0.24910   1.000
    C73     C    0.68240   0.45770   0.21320   1.000
    H40     H    0.68890   0.41530   0.19530   1.000
    C74     C    0.63700   0.48340   0.20440   1.000
    H41     H    0.61380   0.45790   0.18080   1.000
    C75     C    0.62710   0.54790   0.23160   1.000
    H42     H    0.59730   0.56480   0.22590   1.000
    C76     C    0.92530   0.37990   0.29710   1.000
    C77     C    0.91340   0.42960   0.33590   1.000
    H43     H    0.88420   0.44810   0.33220   1.000
    N16     N    0.77070   0.34410   0.11140   1.000
    N17     N    0.76240   0.46980   0.26200   1.000
    N18     N    0.89600   0.35680   0.24920   1.000
    C78     C    0.99220   0.41880   0.39030   1.000
    H44     H    0.01410   0.42880   0.42060   1.000
    C79     C    0.00120   0.37160   0.35140   1.000
    C80     C    0.96750   0.34700   0.30900   1.000
    H45     H    0.97370   0.30780   0.28850   1.000
    C81     C    0.95100   0.44730   0.38040   1.000
    H46     H    0.94520   0.48190   0.40400   1.000
    C82     C    0.66250   0.58670   0.26750   1.000
    C83     C    0.70780   0.56100   0.27630   1.000
    H47     H    0.73110   0.58640   0.29990   1.000
    C84     C    0.71730   0.35130   0.02070   1.000
    H48     H    0.73940   0.33320   0.00610   1.000
    Cd3     Cd   0.62921   0.76297   0.35651   1.000
    C85     C    0.71198   0.95090   0.27300   1.000
    N19     N    0.73160   0.92620   0.32080   1.000
    C86     C    0.70752   0.88370   0.34574   1.000
    N20     N    0.66382   0.86600   0.32290   1.000
    C87     C    0.64419   0.89060   0.27510   1.000
    N21     N    0.66828   0.93310   0.25018   1.000
    C88     C    0.76910   0.87940   0.42680   1.000
    C89     C    0.79140   0.95260   0.42130   1.000
    H49     H    0.78040   0.98430   0.39310   1.000
    C90     C    0.83060   0.97350   0.46090   1.000
    H50     H    0.84460   0.02110   0.46000   1.000
    C91     C    0.84840   0.92110   0.50200   1.000
    H51     H    0.87400   0.93470   0.52780   1.000
    C92     C    0.82700   0.84790   0.50350   1.000
    C93     C    0.84230   0.80180   0.55200   1.000
    C94     C    0.77720   0.03640   0.26760   1.000
    C95     C    0.81090   0.00140   0.30740   1.000
    H52     H    0.80300   0.96180   0.32660   1.000
    C96     C    0.85650   0.02650   0.31810   1.000
    H53     H    0.87860   0.00350   0.34430   1.000
    C97     C    0.86840   0.08670   0.28900   1.000
    H54     H    0.89830   0.10320   0.29600   1.000
    C98     C    0.84560   0.15990   0.20380   1.000
    C99     C    0.56850   0.91320   0.21120   1.000
    C100    C    0.57610   0.97130   0.17990   1.000
    H55     H    0.60440   0.99500   0.18680   1.000
    C101    C    0.44860   0.84740   0.14550   1.000
    N22     N    0.72200   0.87850   0.40010   1.000
    N23     N    0.72900   0.00970   0.25120   1.000
    N24     N    0.59840   0.89180   0.26300   1.000
    O13     O    0.81918   0.74730   0.55792   1.000
    O14     O    0.87832   0.82540   0.58300   1.000
    O15     O    0.88627   0.18120   0.21430   1.000
    O16     O    0.81500   0.18200   0.16830   1.000
    O17     O    0.44350   0.80120   0.17790   1.000
    O18     O    0.41910   0.86400   0.10630   1.000
    C102    C    0.49990   0.95910   0.12830   1.000
    H56     H    0.47670   0.97470   0.10020   1.000
    C103    C    0.49230   0.90110   0.15960   1.000
    C104    C    0.52660   0.87810   0.20110   1.000
    H57     H    0.52150   0.83890   0.22220   1.000
    C105    C    0.54180   0.99420   0.13840   1.000
    H58     H    0.54690   0.03340   0.11730   1.000
    C106    C    0.83470   0.12180   0.24920   1.000
    C107    C    0.78910   0.09660   0.23850   1.000
    H59     H    0.76700   0.11970   0.21230   1.000
    C108    C    0.78770   0.82710   0.46390   1.000
    H60     H    0.77500   0.77800   0.46350   1.000
    C109    C    0.77060   0.87930   0.42700   1.000
    C110    C    0.80540   0.91190   0.40590   1.000
    H61     H    0.79770   0.92980   0.37260   1.000
    C111    C    0.85220   0.91650   0.43710   1.000
    H62     H    0.87440   0.93730   0.42360   1.000
    C112    C    0.86430   0.88850   0.48930   1.000
    H63     H    0.89330   0.89240   0.51110   1.000
    C113    C    0.82520   0.85240   0.50470   1.000
    C114    C    0.78220   0.99650   0.25090   1.000
    C115    C    0.81760   0.95770   0.28680   1.000
    H64     H    0.81110   0.91530   0.30470   1.000
    C116    C    0.86300   0.98340   0.29560   1.000
    H65     H    0.88620   0.95790   0.31920   1.000
    C117    C    0.87290   0.04790   0.26840   1.000
    H66     H    0.90270   0.06480   0.27410   1.000
    C118    C    0.57470   0.87990   0.20290   1.000
    C119    C    0.58660   0.92960   0.16410   1.000
    H67     H    0.61580   0.94810   0.16780   1.000
    N25     N    0.72930   0.84410   0.38860   1.000
    N26     N    0.73760   0.96980   0.23800   1.000
    N27     N    0.60400   0.85680   0.25080   1.000
    C120    C    0.50780   0.91880   0.10970   1.000
    H68     H    0.48590   0.92880   0.07940   1.000
    C121    C    0.49880   0.87160   0.14860   1.000
    C122    C    0.53250   0.84700   0.19100   1.000
    H69     H    0.52630   0.80780   0.21150   1.000
    C123    C    0.54900   0.94730   0.11960   1.000
    H70     H    0.55480   0.98190   0.09600   1.000
    C124    C    0.83750   0.08670   0.23250   1.000
    C125    C    0.79220   0.06100   0.22370   1.000
    H71     H    0.76890   0.08640   0.20010   1.000
    C126    C    0.78270   0.85130   0.47930   1.000
    H72     H    0.76060   0.83320   0.49390   1.000
    Cd4     Cd   0.12921   0.26297   0.35651   1.000
    C127    C    0.21198   0.45090   0.27300   1.000
    N28     N    0.23160   0.42620   0.32080   1.000
    C128    C    0.20752   0.38370   0.34574   1.000
    N29     N    0.16382   0.36600   0.32290   1.000
    C129    C    0.14419   0.39060   0.27510   1.000
    N30     N    0.16828   0.43310   0.25018   1.000
    C130    C    0.26910   0.37940   0.42680   1.000
    C131    C    0.29140   0.45260   0.42130   1.000
    H73     H    0.28040   0.48430   0.39310   1.000
    C132    C    0.33060   0.47350   0.46090   1.000
    H74     H    0.34460   0.52110   0.46000   1.000
    C133    C    0.34840   0.42110   0.50200   1.000
    H75     H    0.37400   0.43470   0.52780   1.000
    C134    C    0.32700   0.34790   0.50350   1.000
    C135    C    0.34230   0.30180   0.55200   1.000
    C136    C    0.27720   0.53640   0.26760   1.000
    C137    C    0.31090   0.50140   0.30740   1.000
    H76     H    0.30300   0.46180   0.32660   1.000
    C138    C    0.35650   0.52650   0.31810   1.000
    H77     H    0.37860   0.50350   0.34430   1.000
    C139    C    0.36840   0.58670   0.28900   1.000
    H78     H    0.39830   0.60320   0.29600   1.000
    C140    C    0.34560   0.65990   0.20380   1.000
    C141    C    0.06850   0.41320   0.21120   1.000
    C142    C    0.07610   0.47130   0.17990   1.000
    H79     H    0.10440   0.49500   0.18680   1.000
    C143    C    0.94860   0.34740   0.14550   1.000
    N31     N    0.22200   0.37850   0.40010   1.000
    N32     N    0.22900   0.50970   0.25120   1.000
    N33     N    0.09840   0.39180   0.26300   1.000
    O19     O    0.31918   0.24730   0.55792   1.000
    O20     O    0.37832   0.32540   0.58300   1.000
    O21     O    0.38627   0.68120   0.21430   1.000
    O22     O    0.31500   0.68200   0.16830   1.000
    O23     O    0.94350   0.30120   0.17790   1.000
    O24     O    0.91910   0.36400   0.10630   1.000
    C144    C    0.99990   0.45910   0.12830   1.000
    H80     H    0.97670   0.47470   0.10020   1.000
    C145    C    0.99230   0.40110   0.15960   1.000
    C146    C    0.02660   0.37810   0.20110   1.000
    H81     H    0.02150   0.33890   0.22220   1.000
    C147    C    0.04180   0.49420   0.13840   1.000
    H82     H    0.04690   0.53340   0.11730   1.000
    C148    C    0.33470   0.62180   0.24920   1.000
    C149    C    0.28910   0.59660   0.23850   1.000
    H83     H    0.26700   0.61970   0.21230   1.000
    C150    C    0.28770   0.32710   0.46390   1.000
    H84     H    0.27500   0.27800   0.46350   1.000
    C151    C    0.27060   0.37930   0.42700   1.000
    C152    C    0.30540   0.41190   0.40590   1.000
    H85     H    0.29770   0.42980   0.37260   1.000
    C153    C    0.35220   0.41650   0.43710   1.000
    H86     H    0.37440   0.43730   0.42360   1.000
    C154    C    0.36430   0.38850   0.48930   1.000
    H87     H    0.39330   0.39240   0.51110   1.000
    C155    C    0.32520   0.35240   0.50470   1.000
    C156    C    0.28220   0.49650   0.25090   1.000
    C157    C    0.31760   0.45770   0.28680   1.000
    H88     H    0.31110   0.41530   0.30470   1.000
    C158    C    0.36300   0.48340   0.29560   1.000
    H89     H    0.38620   0.45790   0.31920   1.000
    C159    C    0.37290   0.54790   0.26840   1.000
    H90     H    0.40270   0.56480   0.27410   1.000
    C160    C    0.07470   0.37990   0.20290   1.000
    C161    C    0.08660   0.42960   0.16410   1.000
    H91     H    0.11580   0.44810   0.16780   1.000
    N34     N    0.22930   0.34410   0.38860   1.000
    N35     N    0.23760   0.46980   0.23800   1.000
    N36     N    0.10400   0.35680   0.25080   1.000
    C162    C    0.00780   0.41880   0.10970   1.000
    H92     H    0.98590   0.42880   0.07940   1.000
    C163    C    0.99880   0.37160   0.14860   1.000
    C164    C    0.03250   0.34700   0.19100   1.000
    H93     H    0.02630   0.30780   0.21150   1.000
    C165    C    0.04900   0.44730   0.11960   1.000
    H94     H    0.05480   0.48190   0.09600   1.000
    C166    C    0.33750   0.58670   0.23250   1.000
    C167    C    0.29220   0.56100   0.22370   1.000
    H95     H    0.26890   0.58640   0.20010   1.000
    C168    C    0.28270   0.35130   0.47930   1.000
    H96     H    0.26060   0.33320   0.49390   1.000
    Cd5     Cd   0.62921   0.23703   0.85651   1.000
    C169    C    0.71198   0.04910   0.77300   1.000
    N37     N    0.73160   0.07380   0.82080   1.000
    C170    C    0.70752   0.11630   0.84574   1.000
    N38     N    0.66382   0.13400   0.82290   1.000
    C171    C    0.64419   0.10940   0.77510   1.000
    N39     N    0.66828   0.06690   0.75018   1.000
    C172    C    0.76910   0.12060   0.92680   1.000
    C173    C    0.79140   0.04740   0.92130   1.000
    H97     H    0.78040   0.01570   0.89310   1.000
    C174    C    0.83060   0.02650   0.96090   1.000
    H98     H    0.84460   0.97890   0.96000   1.000
    C175    C    0.84840   0.07890   0.00200   1.000
    H99     H    0.87400   0.06530   0.02780   1.000
    C176    C    0.82700   0.15210   0.00350   1.000
    C177    C    0.84230   0.19820   0.05200   1.000
    C178    C    0.77720   0.96360   0.76760   1.000
    C179    C    0.81090   0.99860   0.80740   1.000
    H100    H    0.80300   0.03820   0.82660   1.000
    C180    C    0.85650   0.97350   0.81810   1.000
    H101    H    0.87860   0.99650   0.84430   1.000
    C181    C    0.86840   0.91330   0.78900   1.000
    H102    H    0.89830   0.89680   0.79600   1.000
    C182    C    0.84560   0.84010   0.70380   1.000
    C183    C    0.56850   0.08680   0.71120   1.000
    C184    C    0.57610   0.02870   0.67990   1.000
    H103    H    0.60440   0.00500   0.68680   1.000
    C185    C    0.44860   0.15260   0.64550   1.000
    N40     N    0.72200   0.12150   0.90010   1.000
    N41     N    0.72900   0.99030   0.75120   1.000
    N42     N    0.59840   0.10820   0.76300   1.000
    O25     O    0.81918   0.25270   0.05792   1.000
    O26     O    0.87832   0.17460   0.08300   1.000
    O27     O    0.88627   0.81880   0.71430   1.000
    O28     O    0.81500   0.81800   0.66830   1.000
    O29     O    0.44350   0.19880   0.67790   1.000
    O30     O    0.41910   0.13600   0.60630   1.000
    C186    C    0.49990   0.04090   0.62830   1.000
    H104    H    0.47670   0.02530   0.60020   1.000
    C187    C    0.49230   0.09890   0.65960   1.000
    C188    C    0.52660   0.12190   0.70110   1.000
    H105    H    0.52150   0.16110   0.72220   1.000
    C189    C    0.54180   0.00580   0.63840   1.000
    H106    H    0.54690   0.96660   0.61730   1.000
    C190    C    0.83470   0.87820   0.74920   1.000
    C191    C    0.78910   0.90340   0.73850   1.000
    H107    H    0.76700   0.88030   0.71230   1.000
    C192    C    0.78770   0.17290   0.96390   1.000
    H108    H    0.77500   0.22200   0.96350   1.000
    C193    C    0.77060   0.12070   0.92700   1.000
    C194    C    0.80540   0.08810   0.90590   1.000
    H109    H    0.79770   0.07020   0.87260   1.000
    C195    C    0.85220   0.08350   0.93710   1.000
    H110    H    0.87440   0.06270   0.92360   1.000
    C196    C    0.86430   0.11150   0.98930   1.000
    H111    H    0.89330   0.10760   0.01110   1.000
    C197    C    0.82520   0.14760   0.00470   1.000
    C198    C    0.78220   0.00350   0.75090   1.000
    C199    C    0.81760   0.04230   0.78680   1.000
    H112    H    0.81110   0.08470   0.80470   1.000
    C200    C    0.86300   0.01660   0.79560   1.000
    H113    H    0.88620   0.04210   0.81920   1.000
    C201    C    0.87290   0.95210   0.76840   1.000
    H114    H    0.90270   0.93520   0.77410   1.000
    C202    C    0.57470   0.12010   0.70290   1.000
    C203    C    0.58660   0.07040   0.66410   1.000
    H115    H    0.61580   0.05190   0.66780   1.000
    N43     N    0.72930   0.15590   0.88860   1.000
    N44     N    0.73760   0.03020   0.73800   1.000
    N45     N    0.60400   0.14320   0.75080   1.000
    C204    C    0.50780   0.08120   0.60970   1.000
    H116    H    0.48590   0.07120   0.57940   1.000
    C205    C    0.49880   0.12840   0.64860   1.000
    C206    C    0.53250   0.15300   0.69100   1.000
    H117    H    0.52630   0.19220   0.71150   1.000
    C207    C    0.54900   0.05270   0.61960   1.000
    H118    H    0.55480   0.01810   0.59600   1.000
    C208    C    0.83750   0.91330   0.73250   1.000
    C209    C    0.79220   0.93900   0.72370   1.000
    H119    H    0.76890   0.91360   0.70010   1.000
    C210    C    0.78270   0.14870   0.97930   1.000
    H120    H    0.76060   0.16680   0.99390   1.000
    Cd6     Cd   0.12921   0.73703   0.85651   1.000
    C211    C    0.21198   0.54910   0.77300   1.000
    N46     N    0.23160   0.57380   0.82080   1.000
    C212    C    0.20752   0.61630   0.84574   1.000
    N47     N    0.16382   0.63400   0.82290   1.000
    C213    C    0.14419   0.60940   0.77510   1.000
    N48     N    0.16828   0.56690   0.75018   1.000
    C214    C    0.26910   0.62060   0.92680   1.000
    C215    C    0.29140   0.54740   0.92130   1.000
    H121    H    0.28040   0.51570   0.89310   1.000
    C216    C    0.33060   0.52650   0.96090   1.000
    H122    H    0.34460   0.47890   0.96000   1.000
    C217    C    0.34840   0.57890   0.00200   1.000
    H123    H    0.37400   0.56530   0.02780   1.000
    C218    C    0.32700   0.65210   0.00350   1.000
    C219    C    0.34230   0.69820   0.05200   1.000
    C220    C    0.27720   0.46360   0.76760   1.000
    C221    C    0.31090   0.49860   0.80740   1.000
    H124    H    0.30300   0.53820   0.82660   1.000
    C222    C    0.35650   0.47350   0.81810   1.000
    H125    H    0.37860   0.49650   0.84430   1.000
    C223    C    0.36840   0.41330   0.78900   1.000
    H126    H    0.39830   0.39680   0.79600   1.000
    C224    C    0.34560   0.34010   0.70380   1.000
    C225    C    0.06850   0.58680   0.71120   1.000
    C226    C    0.07610   0.52870   0.67990   1.000
    H127    H    0.10440   0.50500   0.68680   1.000
    C227    C    0.94860   0.65260   0.64550   1.000
    N49     N    0.22200   0.62150   0.90010   1.000
    N50     N    0.22900   0.49030   0.75120   1.000
    N51     N    0.09840   0.60820   0.76300   1.000
    O31     O    0.31918   0.75270   0.05792   1.000
    O32     O    0.37832   0.67460   0.08300   1.000
    O33     O    0.38627   0.31880   0.71430   1.000
    O34     O    0.31500   0.31800   0.66830   1.000
    O35     O    0.94350   0.69880   0.67790   1.000
    O36     O    0.91910   0.63600   0.60630   1.000
    C228    C    0.99990   0.54090   0.62830   1.000
    H128    H    0.97670   0.52530   0.60020   1.000
    C229    C    0.99230   0.59890   0.65960   1.000
    C230    C    0.02660   0.62190   0.70110   1.000
    H129    H    0.02150   0.66110   0.72220   1.000
    C231    C    0.04180   0.50580   0.63840   1.000
    H130    H    0.04690   0.46660   0.61730   1.000
    C232    C    0.33470   0.37820   0.74920   1.000
    C233    C    0.28910   0.40340   0.73850   1.000
    H131    H    0.26700   0.38030   0.71230   1.000
    C234    C    0.28770   0.67290   0.96390   1.000
    H132    H    0.27500   0.72200   0.96350   1.000
    C235    C    0.27060   0.62070   0.92700   1.000
    C236    C    0.30540   0.58810   0.90590   1.000
    H133    H    0.29770   0.57020   0.87260   1.000
    C237    C    0.35220   0.58350   0.93710   1.000
    H134    H    0.37440   0.56270   0.92360   1.000
    C238    C    0.36430   0.61150   0.98930   1.000
    H135    H    0.39330   0.60760   0.01110   1.000
    C239    C    0.32520   0.64760   0.00470   1.000
    C240    C    0.28220   0.50350   0.75090   1.000
    C241    C    0.31760   0.54230   0.78680   1.000
    H136    H    0.31110   0.58470   0.80470   1.000
    C242    C    0.36300   0.51660   0.79560   1.000
    H137    H    0.38620   0.54210   0.81920   1.000
    C243    C    0.37290   0.45210   0.76840   1.000
    H138    H    0.40270   0.43520   0.77410   1.000
    C244    C    0.07470   0.62010   0.70290   1.000
    C245    C    0.08660   0.57040   0.66410   1.000
    H139    H    0.11580   0.55190   0.66780   1.000
    N52     N    0.22930   0.65590   0.88860   1.000
    N53     N    0.23760   0.53020   0.73800   1.000
    N54     N    0.10400   0.64320   0.75080   1.000
    C246    C    0.00780   0.58120   0.60970   1.000
    H140    H    0.98590   0.57120   0.57940   1.000
    C247    C    0.99880   0.62840   0.64860   1.000
    C248    C    0.03250   0.65300   0.69100   1.000
    H141    H    0.02630   0.69220   0.71150   1.000
    C249    C    0.04900   0.55270   0.61960   1.000
    H142    H    0.05480   0.51810   0.59600   1.000
    C250    C    0.33750   0.41330   0.73250   1.000
    C251    C    0.29220   0.43900   0.72370   1.000
    H143    H    0.26890   0.41360   0.70010   1.000
    C252    C    0.28270   0.64870   0.97930   1.000
    H144    H    0.26060   0.66680   0.99390   1.000
    Cd7     Cd   0.37079   0.23703   0.64349   1.000
    C253    C    0.28802   0.04910   0.72700   1.000
    N55     N    0.26840   0.07380   0.67920   1.000
    C254    C    0.29248   0.11630   0.65426   1.000
    N56     N    0.33618   0.13400   0.67710   1.000
    C255    C    0.35581   0.10940   0.72490   1.000
    N57     N    0.33172   0.06690   0.74982   1.000
    C256    C    0.23090   0.12060   0.57320   1.000
    C257    C    0.20860   0.04740   0.57870   1.000
    H145    H    0.21960   0.01570   0.60690   1.000
    C258    C    0.16940   0.02650   0.53910   1.000
    H146    H    0.15540   0.97890   0.54000   1.000
    C259    C    0.15160   0.07890   0.49800   1.000
    H147    H    0.12600   0.06530   0.47220   1.000
    C260    C    0.17300   0.15210   0.49650   1.000
    C261    C    0.15770   0.19820   0.44800   1.000
    C262    C    0.22280   0.96360   0.73240   1.000
    C263    C    0.18910   0.99860   0.69260   1.000
    H148    H    0.19700   0.03820   0.67340   1.000
    C264    C    0.14350   0.97350   0.68190   1.000
    H149    H    0.12140   0.99650   0.65570   1.000
    C265    C    0.13160   0.91330   0.71100   1.000
    H150    H    0.10170   0.89680   0.70400   1.000
    C266    C    0.15440   0.84010   0.79620   1.000
    C267    C    0.43150   0.08680   0.78880   1.000
    C268    C    0.42390   0.02870   0.82010   1.000
    H151    H    0.39560   0.00500   0.81320   1.000
    C269    C    0.55140   0.15260   0.85450   1.000
    N58     N    0.27800   0.12150   0.59990   1.000
    N59     N    0.27100   0.99030   0.74880   1.000
    N60     N    0.40160   0.10820   0.73700   1.000
    O37     O    0.18082   0.25270   0.44208   1.000
    O38     O    0.12168   0.17460   0.41700   1.000
    O39     O    0.11373   0.81880   0.78570   1.000
    O40     O    0.18500   0.81800   0.83170   1.000
    O41     O    0.55650   0.19880   0.82210   1.000
    O42     O    0.58090   0.13600   0.89370   1.000
    C270    C    0.50010   0.04090   0.87170   1.000
    H152    H    0.52330   0.02530   0.89980   1.000
    C271    C    0.50770   0.09890   0.84040   1.000
    C272    C    0.47340   0.12190   0.79890   1.000
    H153    H    0.47850   0.16110   0.77780   1.000
    C273    C    0.45820   0.00580   0.86160   1.000
    H154    H    0.45310   0.96660   0.88270   1.000
    C274    C    0.16530   0.87820   0.75080   1.000
    C275    C    0.21090   0.90340   0.76150   1.000
    H155    H    0.23300   0.88030   0.78770   1.000
    C276    C    0.21230   0.17290   0.53610   1.000
    H156    H    0.22500   0.22200   0.53650   1.000
    C277    C    0.22940   0.12070   0.57300   1.000
    C278    C    0.19460   0.08810   0.59410   1.000
    H157    H    0.20230   0.07020   0.62740   1.000
    C279    C    0.14780   0.08350   0.56290   1.000
    H158    H    0.12560   0.06270   0.57640   1.000
    C280    C    0.13570   0.11150   0.51070   1.000
    H159    H    0.10670   0.10760   0.48890   1.000
    C281    C    0.17480   0.14760   0.49530   1.000
    C282    C    0.21780   0.00350   0.74910   1.000
    C283    C    0.18240   0.04230   0.71320   1.000
    H160    H    0.18890   0.08470   0.69530   1.000
    C284    C    0.13700   0.01660   0.70440   1.000
    H161    H    0.11380   0.04210   0.68080   1.000
    C285    C    0.12710   0.95210   0.73160   1.000
    H162    H    0.09730   0.93520   0.72590   1.000
    C286    C    0.42530   0.12010   0.79710   1.000
    C287    C    0.41340   0.07040   0.83590   1.000
    H163    H    0.38420   0.05190   0.83220   1.000
    N61     N    0.27070   0.15590   0.61140   1.000
    N62     N    0.26240   0.03020   0.76200   1.000
    N63     N    0.39600   0.14320   0.74920   1.000
    C288    C    0.49220   0.08120   0.89030   1.000
    H164    H    0.51410   0.07120   0.92060   1.000
    C289    C    0.50120   0.12840   0.85140   1.000
    C290    C    0.46750   0.15300   0.80900   1.000
    H165    H    0.47370   0.19220   0.78850   1.000
    C291    C    0.45100   0.05270   0.88040   1.000
    H166    H    0.44520   0.01810   0.90400   1.000
    C292    C    0.16250   0.91330   0.76750   1.000
    C293    C    0.20780   0.93900   0.77630   1.000
    H167    H    0.23110   0.91360   0.79990   1.000
    C294    C    0.21730   0.14870   0.52070   1.000
    H168    H    0.23940   0.16680   0.50610   1.000
    Cd8     Cd   0.87079   0.73703   0.64349   1.000
    C295    C    0.78802   0.54910   0.72700   1.000
    N64     N    0.76840   0.57380   0.67920   1.000
    C296    C    0.79248   0.61630   0.65426   1.000
    N65     N    0.83618   0.63400   0.67710   1.000
    C297    C    0.85581   0.60940   0.72490   1.000
    N66     N    0.83172   0.56690   0.74982   1.000
    C298    C    0.73090   0.62060   0.57320   1.000
    C299    C    0.70860   0.54740   0.57870   1.000
    H169    H    0.71960   0.51570   0.60690   1.000
    C300    C    0.66940   0.52650   0.53910   1.000
    H170    H    0.65540   0.47890   0.54000   1.000
    C301    C    0.65160   0.57890   0.49800   1.000
    H171    H    0.62600   0.56530   0.47220   1.000
    C302    C    0.67300   0.65210   0.49650   1.000
    C303    C    0.65770   0.69820   0.44800   1.000
    C304    C    0.72280   0.46360   0.73240   1.000
    C305    C    0.68910   0.49860   0.69260   1.000
    H172    H    0.69700   0.53820   0.67340   1.000
    C306    C    0.64350   0.47350   0.68190   1.000
    H173    H    0.62140   0.49650   0.65570   1.000
    C307    C    0.63160   0.41330   0.71100   1.000
    H174    H    0.60170   0.39680   0.70400   1.000
    C308    C    0.65440   0.34010   0.79620   1.000
    C309    C    0.93150   0.58680   0.78880   1.000
    C310    C    0.92390   0.52870   0.82010   1.000
    H175    H    0.89560   0.50500   0.81320   1.000
    C311    C    0.05140   0.65260   0.85450   1.000
    N67     N    0.77800   0.62150   0.59990   1.000
    N68     N    0.77100   0.49030   0.74880   1.000
    N69     N    0.90160   0.60820   0.73700   1.000
    O43     O    0.68082   0.75270   0.44208   1.000
    O44     O    0.62168   0.67460   0.41700   1.000
    O45     O    0.61373   0.31880   0.78570   1.000
    O46     O    0.68500   0.31800   0.83170   1.000
    O47     O    0.05650   0.69880   0.82210   1.000
    O48     O    0.08090   0.63600   0.89370   1.000
    C312    C    0.00010   0.54090   0.87170   1.000
    H176    H    0.02330   0.52530   0.89980   1.000
    C313    C    0.00770   0.59890   0.84040   1.000
    C314    C    0.97340   0.62190   0.79890   1.000
    H177    H    0.97850   0.66110   0.77780   1.000
    C315    C    0.95820   0.50580   0.86160   1.000
    H178    H    0.95310   0.46660   0.88270   1.000
    C316    C    0.66530   0.37820   0.75080   1.000
    C317    C    0.71090   0.40340   0.76150   1.000
    H179    H    0.73300   0.38030   0.78770   1.000
    C318    C    0.71230   0.67290   0.53610   1.000
    H180    H    0.72500   0.72200   0.53650   1.000
    C319    C    0.72940   0.62070   0.57300   1.000
    C320    C    0.69460   0.58810   0.59410   1.000
    H181    H    0.70230   0.57020   0.62740   1.000
    C321    C    0.64780   0.58350   0.56290   1.000
    H182    H    0.62560   0.56270   0.57640   1.000
    C322    C    0.63570   0.61150   0.51070   1.000
    H183    H    0.60670   0.60760   0.48890   1.000
    C323    C    0.67480   0.64760   0.49530   1.000
    C324    C    0.71780   0.50350   0.74910   1.000
    C325    C    0.68240   0.54230   0.71320   1.000
    H184    H    0.68890   0.58470   0.69530   1.000
    C326    C    0.63700   0.51660   0.70440   1.000
    H185    H    0.61380   0.54210   0.68080   1.000
    C327    C    0.62710   0.45210   0.73160   1.000
    H186    H    0.59730   0.43520   0.72590   1.000
    C328    C    0.92530   0.62010   0.79710   1.000
    C329    C    0.91340   0.57040   0.83590   1.000
    H187    H    0.88420   0.55190   0.83220   1.000
    N70     N    0.77070   0.65590   0.61140   1.000
    N71     N    0.76240   0.53020   0.76200   1.000
    N72     N    0.89600   0.64320   0.74920   1.000
    C330    C    0.99220   0.58120   0.89030   1.000
    H188    H    0.01410   0.57120   0.92060   1.000
    C331    C    0.00120   0.62840   0.85140   1.000
    C332    C    0.96750   0.65300   0.80900   1.000
    H189    H    0.97370   0.69220   0.78850   1.000
    C333    C    0.95100   0.55270   0.88040   1.000
    H190    H    0.94520   0.51810   0.90400   1.000
    C334    C    0.66250   0.41330   0.76750   1.000
    C335    C    0.70780   0.43900   0.77630   1.000
    H191    H    0.73110   0.41360   0.79990   1.000
    C336    C    0.71730   0.64870   0.52070   1.000
    H192    H    0.73940   0.66680   0.50610   1.000
