# CIF file generated by openbabel 2.4.1, see http://openbabel.sf.net
data_I
_chemical_name_common 'image0'
_cell_length_a 10.9399
_cell_length_b 10.9399
_cell_length_c 9.614
_cell_angle_alpha 90
_cell_angle_beta 90
_cell_angle_gamma 90
_space_group_name_H-M_alt 'P 1'
_space_group_name_Hall 'P 1'
loop_
    _symmetry_equiv_pos_as_xyz
    x,y,z
loop_
    _atom_site_label
    _atom_site_type_symbol
    _atom_site_fract_x
    _atom_site_fract_y
    _atom_site_fract_z
    _atom_site_occupancy
    O1      O    0.18272   0.01660   0.38486   1.000
    C1      C    0.04820   0.11400   0.07990   1.000
    H1      H    0.13100   0.12560   0.11350   1.000
    O2      O    0.81728   0.98340   0.38486   1.000
    C2      C    0.95180   0.88600   0.07990   1.000
    H2      H    0.86900   0.87440   0.11350   1.000
    O3      O    0.98340   0.18272   0.38486   1.000
    C3      C    0.88600   0.04820   0.07990   1.000
    H3      H    0.87440   0.13100   0.11350   1.000
    O4      O    0.01660   0.81728   0.38486   1.000
    C4      C    0.11400   0.95180   0.07990   1.000
    H4      H    0.12560   0.86900   0.11350   1.000
    O5      O    0.81728   0.01660   0.61514   1.000
    C5      C    0.95180   0.11400   0.92010   1.000
    H5      H    0.86900   0.12560   0.88650   1.000
    O6      O    0.18272   0.98340   0.61514   1.000
    C6      C    0.04820   0.88600   0.92010   1.000
    H6      H    0.13100   0.87440   0.88650   1.000
    O7      O    0.01660   0.18272   0.61514   1.000
    C7      C    0.11400   0.04820   0.92010   1.000
    H7      H    0.12560   0.13100   0.88650   1.000
    O8      O    0.98340   0.81728   0.61514   1.000
    C8      C    0.88600   0.95180   0.92010   1.000
    H8      H    0.87440   0.86900   0.88650   1.000
    O9      O    0.81728   0.98340   0.61514   1.000
    C9      C    0.95180   0.88600   0.92010   1.000
    H9      H    0.86900   0.87440   0.88650   1.000
    O10     O    0.18272   0.01660   0.61514   1.000
    C10     C    0.04820   0.11400   0.92010   1.000
    H10     H    0.13100   0.12560   0.88650   1.000
    O11     O    0.01660   0.81728   0.61514   1.000
    C11     C    0.11400   0.95180   0.92010   1.000
    H11     H    0.12560   0.86900   0.88650   1.000
    O12     O    0.98340   0.18272   0.61514   1.000
    C12     C    0.88600   0.04820   0.92010   1.000
    H12     H    0.87440   0.13100   0.88650   1.000
    O13     O    0.18272   0.98340   0.38486   1.000
    C13     C    0.04820   0.88600   0.07990   1.000
    H13     H    0.13100   0.87440   0.11350   1.000
    O14     O    0.81728   0.01660   0.38486   1.000
    C14     C    0.95180   0.11400   0.07990   1.000
    H14     H    0.86900   0.12560   0.11350   1.000
    O15     O    0.98340   0.81728   0.38486   1.000
    C15     C    0.88600   0.95180   0.07990   1.000
    H15     H    0.87440   0.86900   0.11350   1.000
    O16     O    0.01660   0.18272   0.38486   1.000
    C16     C    0.11400   0.04820   0.07990   1.000
    H16     H    0.12560   0.13100   0.11350   1.000
    Zn1     Zn   0.00000   0.00000   0.34992   1.000
    N1      N    0.00000   0.00000   0.13370   1.000
    Zn2     Zn   0.00000   0.00000   0.65008   1.000
    N2      N    0.00000   0.00000   0.86630   1.000
    C17     C    0.23530   0.00000   0.50000   1.000
    C18     C    0.37280   0.00000   0.50000   1.000
    C19     C    0.76470   0.00000   0.50000   1.000
    C20     C    0.62720   0.00000   0.50000   1.000
    C21     C    0.00000   0.23530   0.50000   1.000
    C22     C    0.00000   0.37280   0.50000   1.000
    C23     C    0.00000   0.76470   0.50000   1.000
    C24     C    0.00000   0.62720   0.50000   1.000
    C25     C    0.43672   0.00000   0.62140   1.000
    H17     H    0.39480   0.00000   0.70550   1.000
    C26     C    0.56328   0.00000   0.62140   1.000
    H18     H    0.60520   0.00000   0.70550   1.000
    C27     C    0.00000   0.43672   0.62140   1.000
    H19     H    0.00000   0.39480   0.70550   1.000
    C28     C    0.00000   0.56328   0.62140   1.000
    H20     H    0.00000   0.60520   0.70550   1.000
    C29     C    0.56328   0.00000   0.37860   1.000
    H21     H    0.60520   0.00000   0.29450   1.000
    C30     C    0.43672   0.00000   0.37860   1.000
    H22     H    0.39480   0.00000   0.29450   1.000
    C31     C    0.00000   0.43672   0.37860   1.000
    H23     H    0.00000   0.39480   0.29450   1.000
    C32     C    0.00000   0.56328   0.37860   1.000
    H24     H    0.00000   0.60520   0.29450   1.000
    H25     H    0.00000   0.18150   0.11350   1.000
    H26     H    0.00000   0.81850   0.11350   1.000
    H27     H    0.81850   0.00000   0.11350   1.000
    H28     H    0.18150   0.00000   0.11350   1.000
    H29     H    0.00000   0.18150   0.88650   1.000
    H30     H    0.00000   0.81850   0.88650   1.000
    H31     H    0.18150   0.00000   0.88650   1.000
    H32     H    0.81850   0.00000   0.88650   1.000
