data_functionalizedCrystal
_audit_creation_method	'EQeq! by Chris Wilmer'
_symmetry_space_group_name_H-M	'P1'
_symmetry_Int_Tables_number	1
_symmetry_cell_setting	triclinic
loop_
_symmetry_equiv_pos_as_xyz
  x,y,z
_cell_length_a	18.515
_cell_length_b	18.515
_cell_length_c	20.245
_cell_angle_alpha	90
_cell_angle_beta	90
_cell_angle_gamma	90
loop_
_atom_site_label
_atom_site_type_symbol
_atom_site_fract_x
_atom_site_fract_y
_atom_site_fract_z
_atom_site_charge
Mof_C 	C 	0.2317	0.4963	0.0396	-0.019
Mof_H 	H 	0.1933	0.4911	0.0687	0.002
Mof_C 	C 	0.241	0.2869	0.102	-0.002
Mof_H 	H 	0.201	0.3166	0.0961	-0.007
Mof_N 	N 	0.3019	0.4683	0.047	-0.288
Mof_N 	N 	0.3138	0.3101	0.1127	-0.297
Mof_C 	C 	0.2316	0.5323	0.9817	-0.029
Mof_H 	H 	0.1913	0.5544	0.9631	0.009
Mof_C 	C 	0.266	0.2882	0.059	-0.031
Mof_H 	H 	0.2406	0.3183	0.0305	0.007
Mof_C 	C 	0.7317	0.9963	0.5396	0
Mof_H 	H 	0.6933	0.9911	0.5687	-0.002
Mof_C 	C 	0.741	0.7869	0.602	-0.001
Mof_H 	H 	0.701	0.8166	0.5961	-0.006
Mof_N 	N 	0.8019	0.9683	0.547	-0.288
Mof_N 	N 	0.8138	0.8101	0.6127	-0.296
Mof_C 	C 	0.7316	0.0323	0.4817	-0.015
Mof_H 	H 	0.6913	0.0544	0.4631	0.005
Mof_C 	C 	0.766	0.7882	0.559	-0.031
Mof_H 	H 	0.7406	0.8183	0.5305	0.008
Mof_C 	C 	0.2683	0.5037	0.5396	-0.001
Mof_H 	H 	0.3067	0.5089	0.5687	-0.002
Mof_C 	C 	0.259	0.7131	0.602	-0.001
Mof_H 	H 	0.299	0.6834	0.5961	-0.006
Mof_N 	N 	0.1981	0.5317	0.547	-0.289
Mof_N 	N 	0.1862	0.6899	0.6127	-0.297
Mof_C 	C 	0.2684	0.4677	0.4817	-0.015
Mof_H 	H 	0.3087	0.4456	0.4631	0.005
Mof_C 	C 	0.234	0.7118	0.559	-0.031
Mof_H 	H 	0.2594	0.6817	0.5305	0.008
Mof_C 	C 	0.7683	0.0037	0.0396	-0.018
Mof_H 	H 	0.8067	0.0089	0.0687	0.004
Mof_C 	C 	0.759	0.2131	0.102	-0
Mof_H 	H 	0.799	0.1834	0.0961	-0.006
Mof_N 	N 	0.6981	0.0317	0.047	-0.288
Mof_N 	N 	0.6862	0.1899	0.1127	-0.297
Mof_C 	C 	0.7684	0.9677	0.9817	-0.029
Mof_H 	H 	0.8087	0.9456	0.9631	0.01
Mof_C 	C 	0.734	0.2118	0.059	-0.031
Mof_H 	H 	0.7594	0.1817	0.0305	0.008
Mof_C 	C 	0.7537	0.9817	0.2896	0.001
Mof_H 	H 	0.7589	0.9433	0.3187	-0.002
Mof_C 	C 	0.9631	0.991	0.352	0.005
Mof_H 	H 	0.9334	0.951	0.3461	-0.008
Mof_N 	N 	0.7817	0.0519	0.297	-0.289
Mof_N 	N 	0.9399	0.0638	0.3627	-0.295
Mof_C 	C 	0.7177	0.9816	0.2317	-0.012
Mof_H 	H 	0.6956	0.9413	0.2131	0.004
Mof_C 	C 	0.9618	0.016	0.309	-0.031
Mof_H 	H 	0.9317	0.9906	0.2805	0.01
Mof_C 	C 	0.2537	0.4817	0.7896	0.001
Mof_H 	H 	0.2589	0.4433	0.8187	-0.003
Mof_C 	C 	0.4631	0.491	0.852	-0
Mof_H 	H 	0.4334	0.451	0.8461	-0.006
Mof_N 	N 	0.2817	0.5519	0.797	-0.289
Mof_N 	N 	0.4399	0.5638	0.8627	-0.297
Mof_C 	C 	0.2177	0.4816	0.7317	-0.012
Mof_H 	H 	0.1956	0.4413	0.7131	0.004
Mof_C 	C 	0.4618	0.516	0.809	-0.031
Mof_H 	H 	0.4317	0.4906	0.7805	0.009
Mof_C 	C 	0.7463	0.0183	0.7896	-0.006
Mof_H 	H 	0.7411	0.0567	0.8187	-0
Mof_C 	C 	0.5369	0.009	0.852	-0.003
Mof_H 	H 	0.5666	0.049	0.8461	-0.005
Mof_N 	N 	0.7183	0.9481	0.797	-0.288
Mof_N 	N 	0.5601	0.9362	0.8627	-0.296
Mof_C 	C 	0.7823	0.0184	0.7317	-0.02
Mof_H 	H 	0.8044	0.0587	0.7131	0.007
Mof_C 	C 	0.5382	0.984	0.809	-0.028
Mof_H 	H 	0.5683	0.0094	0.7805	0.007
Mof_C 	C 	0.2463	0.5183	0.2896	-0.006
Mof_H 	H 	0.2411	0.5567	0.3187	-0
Mof_C 	C 	0.0369	0.509	0.352	-0.003
Mof_H 	H 	0.0666	0.549	0.3461	-0.006
Mof_N 	N 	0.2183	0.4481	0.297	-0.289
Mof_N 	N 	0.0601	0.4362	0.3627	-0.296
Mof_C 	C 	0.2823	0.5184	0.2317	-0.02
Mof_H 	H 	0.3044	0.5587	0.2131	0.006
Mof_C 	C 	0.0382	0.484	0.309	-0.035
Mof_H 	H 	0.0683	0.5094	0.2805	0.009
Mof_C 	C 	0.2683	0.4963	0.4604	-0.001
Mof_H 	H 	0.3067	0.4911	0.4313	-0.002
Mof_C 	C 	0.259	0.2869	0.398	-0.001
Mof_H 	H 	0.299	0.3166	0.4039	-0.006
Mof_N 	N 	0.1981	0.4683	0.453	-0.289
Mof_N 	N 	0.1862	0.3101	0.3873	-0.297
Mof_C 	C 	0.2684	0.5323	0.5183	-0.014
Mof_H 	H 	0.3087	0.5544	0.5369	0.005
Mof_C 	C 	0.234	0.2882	0.441	-0.031
Mof_H 	H 	0.2594	0.3183	0.4695	0.008
Mof_C 	C 	0.7683	0.9963	0.9604	0.016
Mof_H 	H 	0.8067	0.9911	0.9313	-0.007
Mof_C 	C 	0.759	0.7869	0.898	-0.001
Mof_H 	H 	0.799	0.8166	0.9039	-0.006
Mof_N 	N 	0.6981	0.9683	0.953	-0.287
Mof_N 	N 	0.6862	0.8101	0.8873	-0.296
Mof_C 	C 	0.7684	0.0323	0.0183	-0.001
Mof_H 	H 	0.8087	0.0544	0.0369	0
Mof_C 	C 	0.734	0.7882	0.941	-0.031
Mof_H 	H 	0.7594	0.8183	0.9695	0.009
Mof_C 	C 	0.2317	0.5037	0.9604	0.015
Mof_H 	H 	0.1933	0.5089	0.9313	-0.007
Mof_C 	C 	0.241	0.7131	0.898	-0.001
Mof_H 	H 	0.201	0.6834	0.9039	-0.006
Mof_N 	N 	0.3019	0.5317	0.953	-0.287
Mof_N 	N 	0.3138	0.6899	0.8873	-0.297
Mof_C 	C 	0.2316	0.4677	0.0183	-0
Mof_H 	H 	0.1913	0.4456	0.0369	-0
Mof_C 	C 	0.266	0.7118	0.941	-0.03
Mof_H 	H 	0.2406	0.6817	0.9695	0.009
Mof_C 	C 	0.7317	0.0037	0.4604	-0.002
Mof_H 	H 	0.6933	0.0089	0.4313	-0.002
Mof_C 	C 	0.741	0.2131	0.398	-0.001
Mof_H 	H 	0.701	0.1834	0.4039	-0.006
Mof_N 	N 	0.8019	0.0317	0.453	-0.288
Mof_N 	N 	0.8138	0.1899	0.3873	-0.296
Mof_C 	C 	0.7316	0.9677	0.5183	-0.015
Mof_H 	H 	0.6913	0.9456	0.5369	0.005
Mof_C 	C 	0.766	0.2118	0.441	-0.031
Mof_H 	H 	0.7406	0.1817	0.4695	0.008
Mof_C 	C 	0.7463	0.9817	0.2104	-0.003
Mof_H 	H 	0.7411	0.9433	0.1813	-0.001
Mof_C 	C 	0.5369	0.991	0.148	0.003
Mof_H 	H 	0.5666	0.951	0.1539	-0.007
Mof_N 	N 	0.7183	0.0519	0.203	-0.289
Mof_N 	N 	0.5601	0.0638	0.1373	-0.297
Mof_C 	C 	0.7823	0.9816	0.2683	-0.016
Mof_H 	H 	0.8044	0.9413	0.2869	0.006
Mof_C 	C 	0.5382	0.016	0.191	-0.035
Mof_H 	H 	0.5683	0.9906	0.2195	0.01
Mof_C 	C 	0.2463	0.4817	0.7104	-0.003
Mof_H 	H 	0.2411	0.4433	0.6813	-0.001
Mof_C 	C 	0.0369	0.491	0.648	-0.003
Mof_H 	H 	0.0666	0.451	0.6539	-0.006
Mof_N 	N 	0.2183	0.5519	0.703	-0.289
Mof_N 	N 	0.0601	0.5638	0.6373	-0.296
Mof_C 	C 	0.2823	0.4816	0.7683	-0.017
Mof_H 	H 	0.3044	0.4413	0.7869	0.006
Mof_C 	C 	0.0382	0.516	0.691	-0.035
Mof_H 	H 	0.0683	0.4906	0.7195	0.009
Mof_C 	C 	0.7537	0.0183	0.7104	0.003
Mof_H 	H 	0.7589	0.0567	0.6813	-0.003
Mof_C 	C 	0.9631	0.009	0.648	-0.002
Mof_H 	H 	0.9334	0.049	0.6539	-0.005
Mof_N 	N 	0.7817	0.9481	0.703	-0.288
Mof_N 	N 	0.9399	0.9362	0.6373	-0.294
Mof_C 	C 	0.7177	0.0184	0.7683	-0.01
Mof_H 	H 	0.6956	0.0587	0.7869	0.003
Mof_C 	C 	0.9618	0.984	0.691	-0.023
Mof_H 	H 	0.9317	0.0094	0.7195	0.006
Mof_C 	C 	0.2537	0.5183	0.2104	0.004
Mof_H 	H 	0.2589	0.5567	0.1813	-0.004
Mof_C 	C 	0.4631	0.509	0.148	-0.001
Mof_H 	H 	0.4334	0.549	0.1539	-0.006
Mof_N 	N 	0.2817	0.4481	0.203	-0.289
Mof_N 	N 	0.4399	0.4362	0.1373	-0.297
Mof_C 	C 	0.2177	0.5184	0.2683	-0.009
Mof_H 	H 	0.1956	0.5587	0.2869	0.003
Mof_C 	C 	0.4618	0.484	0.191	-0.031
Mof_H 	H 	0.4317	0.5094	0.2195	0.008
Mof_C 	C 	0.7683	0.5037	0.9604	0.015
Mof_H 	H 	0.8067	0.5089	0.9313	-0.007
Mof_C 	C 	0.759	0.7131	0.898	-0.001
Mof_H 	H 	0.799	0.6834	0.9039	-0.006
Mof_N 	N 	0.6981	0.5317	0.953	-0.287
Mof_N 	N 	0.6862	0.6899	0.8873	-0.297
Mof_C 	C 	0.7684	0.4677	0.0183	-0.001
Mof_H 	H 	0.8087	0.4456	0.0369	0
Mof_C 	C 	0.734	0.7118	0.941	-0.031
Mof_H 	H 	0.7594	0.6817	0.9695	0.009
Mof_C 	C 	0.2683	0.0037	0.4604	-0.002
Mof_H 	H 	0.3067	0.0089	0.4313	-0.002
Mof_C 	C 	0.259	0.2131	0.398	-0.001
Mof_H 	H 	0.299	0.1834	0.4039	-0.006
Mof_N 	N 	0.1981	0.0317	0.453	-0.289
Mof_N 	N 	0.1862	0.1899	0.3873	-0.297
Mof_C 	C 	0.2684	0.9677	0.5183	-0.015
Mof_H 	H 	0.3087	0.9456	0.5369	0.005
Mof_C 	C 	0.234	0.2118	0.441	-0.031
Mof_H 	H 	0.2594	0.1817	0.4695	0.008
Mof_C 	C 	0.7317	0.4963	0.4604	-0.001
Mof_H 	H 	0.6933	0.4911	0.4313	-0.002
Mof_C 	C 	0.741	0.2869	0.398	-0.001
Mof_H 	H 	0.701	0.3166	0.4039	-0.006
Mof_N 	N 	0.8019	0.4683	0.453	-0.288
Mof_N 	N 	0.8138	0.3101	0.3873	-0.296
Mof_C 	C 	0.7316	0.5323	0.5183	-0.014
Mof_H 	H 	0.6913	0.5544	0.5369	0.005
Mof_C 	C 	0.766	0.2882	0.441	-0.031
Mof_H 	H 	0.7406	0.3183	0.4695	0.008
Mof_C 	C 	0.2317	0.9963	0.9604	0.016
Mof_H 	H 	0.1933	0.9911	0.9313	-0.008
Mof_C 	C 	0.241	0.7869	0.898	-0.001
Mof_H 	H 	0.201	0.8166	0.9039	-0.006
Mof_N 	N 	0.3019	0.9683	0.953	-0.287
Mof_N 	N 	0.3138	0.8101	0.8873	-0.297
Mof_C 	C 	0.2316	0.0323	0.0183	-0.001
Mof_H 	H 	0.1913	0.0544	0.0369	-0
Mof_C 	C 	0.266	0.7882	0.941	-0.03
Mof_H 	H 	0.2406	0.8183	0.9695	0.009
Mof_C 	C 	0.2463	0.0183	0.7104	-0.003
Mof_H 	H 	0.2411	0.0567	0.6813	-0.001
Mof_C 	C 	0.0369	0.009	0.648	-0.007
Mof_H 	H 	0.0666	0.049	0.6539	-0.005
Mof_N 	N 	0.2183	0.9481	0.703	-0.288
Mof_N 	N 	0.0601	0.9362	0.6373	-0.295
Mof_C 	C 	0.2823	0.0184	0.7683	-0.017
Mof_H 	H 	0.3044	0.0587	0.7869	0.006
Mof_C 	C 	0.0382	0.984	0.691	-0.031
Mof_H 	H 	0.0683	0.0094	0.7195	0.007
Mof_C 	C 	0.7463	0.5183	0.2104	-0.003
Mof_H 	H 	0.7411	0.5567	0.1813	-0.001
Mof_C 	C 	0.5369	0.509	0.148	-0.001
Mof_H 	H 	0.5666	0.549	0.1539	-0.006
Mof_N 	N 	0.7183	0.4481	0.203	-0.289
Mof_N 	N 	0.5601	0.4362	0.1373	-0.297
Mof_C 	C 	0.7823	0.5184	0.2683	-0.016
Mof_H 	H 	0.8044	0.5587	0.2869	0.006
Mof_C 	C 	0.5382	0.484	0.191	-0.031
Mof_H 	H 	0.5683	0.5094	0.2195	0.008
Mof_C 	C 	0.2537	0.9817	0.2104	0.004
Mof_H 	H 	0.2589	0.9433	0.1813	-0.003
Mof_C 	C 	0.4631	0.991	0.148	0.003
Mof_H 	H 	0.4334	0.951	0.1539	-0.007
Mof_N 	N 	0.2817	0.0519	0.203	-0.289
Mof_N 	N 	0.4399	0.0638	0.1373	-0.297
Mof_C 	C 	0.2177	0.9816	0.2683	-0.009
Mof_H 	H 	0.1956	0.9413	0.2869	0.003
Mof_C 	C 	0.4618	0.016	0.191	-0.035
Mof_H 	H 	0.4317	0.9906	0.2195	0.01
Mof_C 	C 	0.7537	0.4817	0.7104	0.004
Mof_H 	H 	0.7589	0.4433	0.6813	-0.003
Mof_C 	C 	0.9631	0.491	0.648	0.002
Mof_H 	H 	0.9334	0.451	0.6539	-0.006
Mof_N 	N 	0.7817	0.5519	0.703	-0.288
Mof_N 	N 	0.9399	0.5638	0.6373	-0.295
Mof_C 	C 	0.7177	0.4816	0.7683	-0.009
Mof_H 	H 	0.6956	0.4413	0.7869	0.003
Mof_C 	C 	0.9618	0.516	0.691	-0.027
Mof_H 	H 	0.9317	0.4906	0.7195	0.008
Mof_C 	C 	0.7317	0.5037	0.5396	-0.001
Mof_H 	H 	0.6933	0.5089	0.5687	-0.002
Mof_C 	C 	0.741	0.7131	0.602	-0.001
Mof_H 	H 	0.701	0.6834	0.5961	-0.006
Mof_N 	N 	0.8019	0.5317	0.547	-0.288
Mof_N 	N 	0.8138	0.6899	0.6127	-0.296
Mof_C 	C 	0.7316	0.4677	0.4817	-0.015
Mof_H 	H 	0.6913	0.4456	0.4631	0.005
Mof_C 	C 	0.766	0.7118	0.559	-0.031
Mof_H 	H 	0.7406	0.6817	0.5305	0.008
Mof_C 	C 	0.2317	0.0037	0.0396	-0.018
Mof_H 	H 	0.1933	0.0089	0.0687	0.003
Mof_C 	C 	0.241	0.2131	0.102	-0.001
Mof_H 	H 	0.201	0.1834	0.0961	-0.007
Mof_N 	N 	0.3019	0.0317	0.047	-0.288
Mof_N 	N 	0.3138	0.1899	0.1127	-0.297
Mof_C 	C 	0.2316	0.9677	0.9817	-0.029
Mof_H 	H 	0.1913	0.9456	0.9631	0.009
Mof_C 	C 	0.266	0.2118	0.059	-0.031
Mof_H 	H 	0.2406	0.1817	0.0305	0.007
Mof_C 	C 	0.7683	0.4963	0.0396	-0.017
Mof_H 	H 	0.8067	0.4911	0.0687	0.004
Mof_C 	C 	0.759	0.2869	0.102	-0
Mof_H 	H 	0.799	0.3166	0.0961	-0.006
Mof_N 	N 	0.6981	0.4683	0.047	-0.288
Mof_N 	N 	0.6862	0.3101	0.1127	-0.297
Mof_C 	C 	0.7684	0.5323	0.9817	-0.029
Mof_H 	H 	0.8087	0.5544	0.9631	0.01
Mof_C 	C 	0.734	0.2882	0.059	-0.032
Mof_H 	H 	0.7594	0.3183	0.0305	0.008
Mof_C 	C 	0.2683	0.9963	0.5396	-0
Mof_H 	H 	0.3067	0.9911	0.5687	-0.002
Mof_C 	C 	0.259	0.7869	0.602	-0.001
Mof_H 	H 	0.299	0.8166	0.5961	-0.006
Mof_N 	N 	0.1981	0.9683	0.547	-0.288
Mof_N 	N 	0.1862	0.8101	0.6127	-0.297
Mof_C 	C 	0.2684	0.0323	0.4817	-0.015
Mof_H 	H 	0.3087	0.0544	0.4631	0.005
Mof_C 	C 	0.234	0.7882	0.559	-0.031
Mof_H 	H 	0.2594	0.8183	0.5305	0.008
Mof_C 	C 	0.2537	0.0183	0.7896	0
Mof_H 	H 	0.2589	0.0567	0.8187	-0.003
Mof_C 	C 	0.4631	0.009	0.852	-0.004
Mof_H 	H 	0.4334	0.049	0.8461	-0.005
Mof_N 	N 	0.2817	0.9481	0.797	-0.288
Mof_N 	N 	0.4399	0.9362	0.8627	-0.296
Mof_C 	C 	0.2177	0.0184	0.7317	-0.013
Mof_H 	H 	0.1956	0.0587	0.7131	0.004
Mof_C 	C 	0.4618	0.984	0.809	-0.028
Mof_H 	H 	0.4317	0.0094	0.7805	0.007
Mof_C 	C 	0.7537	0.5183	0.2896	0
Mof_H 	H 	0.7589	0.5567	0.3187	-0.002
Mof_C 	C 	0.9631	0.509	0.352	0.002
Mof_H 	H 	0.9334	0.549	0.3461	-0.006
Mof_N 	N 	0.7817	0.4481	0.297	-0.288
Mof_N 	N 	0.9399	0.4362	0.3627	-0.295
Mof_C 	C 	0.7177	0.5184	0.2317	-0.013
Mof_H 	H 	0.6956	0.5587	0.2131	0.004
Mof_C 	C 	0.9618	0.484	0.309	-0.027
Mof_H 	H 	0.9317	0.5094	0.2805	0.008
Mof_C 	C 	0.2463	0.9817	0.2896	-0.006
Mof_H 	H 	0.2411	0.9433	0.3187	-0
Mof_C 	C 	0.0369	0.991	0.352	0.001
Mof_H 	H 	0.0666	0.951	0.3461	-0.007
Mof_N 	N 	0.2183	0.0519	0.297	-0.289
Mof_N 	N 	0.0601	0.0638	0.3627	-0.296
Mof_C 	C 	0.2823	0.9816	0.2317	-0.02
Mof_H 	H 	0.3044	0.9413	0.2131	0.006
Mof_C 	C 	0.0382	0.016	0.309	-0.039
Mof_H 	H 	0.0683	0.9906	0.2805	0.011
Mof_C 	C 	0.7463	0.4817	0.7896	-0.006
Mof_H 	H 	0.7411	0.4433	0.8187	-0
Mof_C 	C 	0.5369	0.491	0.852	-0
Mof_H 	H 	0.5666	0.451	0.8461	-0.006
Mof_N 	N 	0.7183	0.5519	0.797	-0.289
Mof_N 	N 	0.5601	0.5638	0.8627	-0.297
Mof_C 	C 	0.7823	0.4816	0.7317	-0.02
Mof_H 	H 	0.8044	0.4413	0.7131	0.007
Mof_C 	C 	0.5382	0.516	0.809	-0.032
Mof_H 	H 	0.5683	0.4906	0.7805	0.008
Mof_C 	C 	0.3409	0.5	-0	0.09
Mof_H 	H 	0.3911	0.5	-0	-0.059
Mof_C 	C 	0.8409	0	0.5	0.093
Mof_H 	H 	0.8911	0	0.5	-0.058
Mof_C 	C 	0.1591	0.5	0.5	0.094
Mof_H 	H 	0.1089	0.5	0.5	-0.06
Mof_C 	C 	0.6591	0	-0	0.089
Mof_H 	H 	0.6089	0	-0	-0.059
Mof_C 	C 	0.75	0.0909	0.25	0.094
Mof_H 	H 	0.75	0.1411	0.25	-0.059
Mof_C 	C 	0.25	0.5909	0.75	0.094
Mof_H 	H 	0.25	0.6411	0.75	-0.059
Mof_C 	C 	0.75	0.9091	0.75	0.094
Mof_H 	H 	0.75	0.8589	0.75	-0.059
Mof_C 	C 	0.25	0.4091	0.25	0.094
Mof_H 	H 	0.25	0.3589	0.25	-0.059
Mof_C 	C 	0.6591	0.5	-0	0.09
Mof_H 	H 	0.6089	0.5	-0	-0.059
Mof_C 	C 	0.1591	0	0.5	0.093
Mof_H 	H 	0.1089	0	0.5	-0.06
Mof_C 	C 	0.8409	0.5	0.5	0.094
Mof_H 	H 	0.8911	0.5	0.5	-0.058
Mof_C 	C 	0.3409	0	-0	0.089
Mof_H 	H 	0.3911	0	-0	-0.059
Mof_C 	C 	0.25	0.9091	0.75	0.094
Mof_H 	H 	0.25	0.8589	0.75	-0.059
Mof_C 	C 	0.75	0.4091	0.25	0.094
Mof_H 	H 	0.75	0.3589	0.25	-0.059
Mof_C 	C 	0.25	0.0909	0.25	0.094
Mof_H 	H 	0.25	0.1411	0.25	-0.059
Mof_C 	C 	0.75	0.5909	0.75	0.094
Mof_H 	H 	0.75	0.6411	0.75	-0.059
Mof_C 	C 	0.3477	0.25	0.1276	0.12
Mof_H 	H 	0.393	0.25	0.1475	-0.071
Mof_C 	C 	0.1523	0.75	0.6276	0.12
Mof_H 	H 	0.107	0.75	0.6475	-0.071
Mof_C 	C 	5.18541e-33	0.0977	0.3776	0.114
Mof_H 	H 	1.62964e-33	0.143	0.3975	-0.07
Mof_C 	C 	0.5	0.5977	0.8776	0.12
Mof_H 	H 	0.5	0.643	0.8975	-0.07
Mof_C 	C 	0.5	0.9023	0.8776	0.12
Mof_H 	H 	0.5	0.857	0.8975	-0.07
Mof_C 	C 	-5.72664e-33	0.4023	0.3776	0.114
Mof_H 	H 	5.267e-33	0.357	0.3975	-0.07
Mof_C 	C 	0.1523	0.25	0.3724	0.12
Mof_H 	H 	0.107	0.25	0.3525	-0.071
Mof_C 	C 	0.3477	0.75	0.8724	0.12
Mof_H 	H 	0.393	0.75	0.8525	-0.07
Mof_C 	C 	0.8477	0.25	0.3724	0.12
Mof_H 	H 	0.893	0.25	0.3525	-0.069
Mof_C 	C 	0.5	0.0977	0.1224	0.12
Mof_H 	H 	0.5	0.143	0.1025	-0.071
Mof_C 	C 	9.82638e-33	0.5977	0.6224	0.114
Mof_H 	H 	9.74479e-33	0.643	0.6025	-0.07
Mof_C 	C 	-1.19977e-32	0.9023	0.6224	0.115
Mof_H 	H 	-4.80461e-33	0.857	0.6025	-0.07
Mof_C 	C 	0.5	0.4023	0.1224	0.12
Mof_H 	H 	0.5	0.357	0.1025	-0.071
Mof_C 	C 	0.6523	0.75	0.8724	0.12
Mof_H 	H 	0.607	0.75	0.8525	-0.07
Mof_C 	C 	0.8477	0.75	0.6276	0.12
Mof_H 	H 	0.893	0.75	0.6475	-0.069
Mof_C 	C 	0.6523	0.25	0.1276	0.12
Mof_H 	H 	0.607	0.25	0.1475	-0.071
Mof_Zn	Zn	0.33653	0.41347	0.125	1.172
Mof_Zn	Zn	0.16347	0.58653	0.625	1.172
Mof_Zn	Zn	0.83653	0.08653	0.375	1.172
Mof_Zn	Zn	0.66347	0.91347	0.875	1.172
Mof_Zn	Zn	0.16347	0.41347	0.375	1.172
Mof_Zn	Zn	0.33653	0.58653	0.875	1.172
Mof_Zn	Zn	0.66347	0.08653	0.125	1.172
Mof_Zn	Zn	0.83653	0.91347	0.625	1.172
Mof_Zn	Zn	0.66347	0.58653	0.875	1.172
Mof_Zn	Zn	0.83653	0.41347	0.375	1.172
Mof_Zn	Zn	0.16347	0.91347	0.625	1.172
Mof_Zn	Zn	0.33653	0.08653	0.125	1.172
Mof_Zn	Zn	0.83653	0.58653	0.625	1.172
Mof_Zn	Zn	0.66347	0.41347	0.125	1.172
Mof_Zn	Zn	0.33653	0.91347	0.875	1.172
Mof_Zn	Zn	0.16347	0.08653	0.375	1.172
_end
