# CIF file generated by openbabel 2.4.1, see http://openbabel.sf.net
data_I
_chemical_name_common 'image0'
_cell_length_a 18.248
_cell_length_b 18.248
_cell_length_c 47.113
_cell_angle_alpha 90
_cell_angle_beta 90
_cell_angle_gamma 120
_space_group_name_H-M_alt 'P 1'
_space_group_name_Hall 'P 1'
loop_
    _symmetry_equiv_pos_as_xyz
    x,y,z
loop_
    _atom_site_label
    _atom_site_type_symbol
    _atom_site_fract_x
    _atom_site_fract_y
    _atom_site_fract_z
    _atom_site_occupancy
    Cu1     Cu   0.52520   0.05090   0.47730   1.000
    O1      O    0.41670   0.97960   0.46300   1.000
    O2      O    0.62630   0.10870   0.49580   1.000
    O3      O    0.47950   0.10400   0.49680   1.000
    O4      O    0.56390   0.98420   0.46290   1.000
    C1      C    0.36130   0.91080   0.47780   1.000
    C2      C    0.28310   0.84660   0.46090   1.000
    C3      C    0.22480   0.77900   0.47470   1.000
    C4      C    0.27370   0.85660   0.43360   1.000
    H1      H    0.23260   0.77160   0.49370   1.000
    C5      C    0.15530   0.72170   0.46130   1.000
    C6      C    0.20500   0.79780   0.42000   1.000
    H2      H    0.31440   0.90410   0.42400   1.000
    C7      C    0.14750   0.72840   0.43360   1.000
    C8      C    0.08910   0.63640   0.47580   1.000
    C9      C    0.19840   0.79880   0.38990   1.000
    H3      H    0.10250   0.68520   0.42370   1.000
    C10     C    0.19960   0.79240   0.36360   1.000
    B1      B    0.20230   0.78690   0.33080   1.000
    B2      B    0.28270   0.87120   0.31150   1.000
    B3      B    0.17940   0.85470   0.31070   1.000
    B4      B    0.10750   0.74540   0.31100   1.000
    B5      B    0.16940   0.69880   0.31000   1.000
    B6      B    0.27630   0.77200   0.31210   1.000
    H4      H    0.33540   0.92620   0.32190   1.000
    B7      B    0.29470   0.82790   0.28040   1.000
    B8      B    0.23980   0.88390   0.28020   1.000
    H5      H    0.16300   0.89900   0.32080   1.000
    B9      B    0.13260   0.80200   0.27960   1.000
    C11     C    0.12850   0.71480   0.28270   1.000
    H6      H    0.04500   0.71700   0.32120   1.000
    C12     C    0.22910   0.73360   0.28390   1.000
    H7      H    0.14520   0.63450   0.31840   1.000
    H8      H    0.32320   0.76030   0.32280   1.000
    H9      H    0.35640   0.85190   0.26990   1.000
    H10     H    0.26430   0.94770   0.27130   1.000
    H11     H    0.08320   0.80930   0.26870   1.000
    H12     H    0.07370   0.65860   0.27370   1.000
    H13     H    0.24840   0.68980   0.27520   1.000
    C13     C    0.18840   0.81510   0.36300   1.000
    C14     C    0.08720   0.77140   0.28442   1.000
    H14     H    0.02640   0.71930   0.27680   1.000
    C15     C    0.18970   0.79150   0.28323   1.000
    H15     H    0.20920   0.75000   0.27280   1.000
    B10     B    0.17640   0.83200   0.33120   1.000
    B11     B    0.25330   0.91720   0.31160   1.000
    H16     H    0.30770   0.97010   0.32220   1.000
    B12     B    0.15410   0.90350   0.31510   1.000
    H17     H    0.14410   0.94770   0.32810   1.000
    B13     B    0.07940   0.79990   0.31450   1.000
    H18     H    0.02090   0.77420   0.32700   1.000
    B14     B    0.13350   0.74610   0.30750   1.000
    H19     H    0.10750   0.67890   0.31280   1.000
    B15     B    0.24610   0.81760   0.30800   1.000
    H20     H    0.29360   0.80120   0.31510   1.000
    B16     B    0.26040   0.88100   0.27895   1.000
    H21     H    0.32100   0.90800   0.26750   1.000
    B17     B    0.20450   0.93310   0.28075   1.000
    H22     H    0.22830   0.99620   0.27140   1.000
    B18     B    0.09710   0.86080   0.28242   1.000
    H23     H    0.05030   0.87590   0.27370   1.000
    Cu2     Cu   0.94910   0.47430   0.47730   1.000
    O5      O    0.02040   0.43710   0.46300   1.000
    O6      O    0.89130   0.51760   0.49580   1.000
    O7      O    0.89600   0.37550   0.49680   1.000
    O8      O    0.01580   0.57970   0.46290   1.000
    C16     C    0.08920   0.45050   0.47780   1.000
    C17     C    0.15340   0.43650   0.46090   1.000
    C18     C    0.22100   0.44580   0.47470   1.000
    C19     C    0.14340   0.41710   0.43360   1.000
    H24     H    0.22840   0.46100   0.49370   1.000
    C20     C    0.27830   0.43360   0.46130   1.000
    C21     C    0.20220   0.40720   0.42000   1.000
    H25     H    0.09590   0.41030   0.42400   1.000
    C22     C    0.27160   0.41910   0.43360   1.000
    C23     C    0.36360   0.45270   0.47580   1.000
    C24     C    0.20120   0.39960   0.38990   1.000
    H26     H    0.31480   0.41730   0.42370   1.000
    C25     C    0.20760   0.40720   0.36360   1.000
    B19     B    0.21310   0.41540   0.33080   1.000
    B20     B    0.12880   0.41150   0.31150   1.000
    B21     B    0.14530   0.32470   0.31070   1.000
    B22     B    0.25460   0.36210   0.31100   1.000
    B23     B    0.30120   0.47060   0.31000   1.000
    B24     B    0.22800   0.50430   0.31210   1.000
    H27     H    0.07380   0.40920   0.32190   1.000
    B25     B    0.17210   0.46680   0.28040   1.000
    B26     B    0.11610   0.35590   0.28020   1.000
    H28     H    0.10100   0.26400   0.32080   1.000
    B27     B    0.19800   0.33060   0.27960   1.000
    C26     C    0.28520   0.41370   0.28270   1.000
    H29     H    0.28300   0.32800   0.32120   1.000
    C27     C    0.26640   0.49550   0.28390   1.000
    H30     H    0.36550   0.51070   0.31840   1.000
    H31     H    0.23970   0.56290   0.32280   1.000
    H32     H    0.14810   0.50450   0.26990   1.000
    H33     H    0.05230   0.31660   0.27130   1.000
    H34     H    0.19070   0.27390   0.26870   1.000
    H35     H    0.34140   0.41510   0.27370   1.000
    H36     H    0.31020   0.55860   0.27520   1.000
    C28     C    0.18490   0.37330   0.36300   1.000
    C29     C    0.22860   0.31580   0.28442   1.000
    H37     H    0.28070   0.30710   0.27680   1.000
    C30     C    0.20850   0.39820   0.28323   1.000
    H38     H    0.25000   0.45920   0.27280   1.000
    B28     B    0.16800   0.34440   0.33120   1.000
    B29     B    0.08280   0.33610   0.31160   1.000
    H39     H    0.02990   0.33760   0.32220   1.000
    B30     B    0.09650   0.25060   0.31510   1.000
    H40     H    0.05230   0.19640   0.32810   1.000
    B31     B    0.20010   0.27950   0.31450   1.000
    H41     H    0.22580   0.24670   0.32700   1.000
    B32     B    0.25390   0.38740   0.30750   1.000
    H42     H    0.32110   0.42860   0.31280   1.000
    B33     B    0.18240   0.42850   0.30800   1.000
    H43     H    0.19880   0.49240   0.31510   1.000
    B34     B    0.11900   0.37940   0.27895   1.000
    H44     H    0.09200   0.41300   0.26750   1.000
    B35     B    0.06690   0.27140   0.28075   1.000
    H45     H    0.00380   0.23210   0.27140   1.000
    B36     B    0.13920   0.23630   0.28242   1.000
    H46     H    0.12410   0.17440   0.27370   1.000
    Cu3     Cu   0.52570   0.47480   0.47730   1.000
    O9      O    0.56290   0.58330   0.46300   1.000
    O10     O    0.48240   0.37370   0.49580   1.000
    O11     O    0.62450   0.52050   0.49680   1.000
    O12     O    0.42030   0.43610   0.46290   1.000
    C31     C    0.54950   0.63870   0.47780   1.000
    C32     C    0.56350   0.71690   0.46090   1.000
    C33     C    0.55420   0.77520   0.47470   1.000
    C34     C    0.58290   0.72630   0.43360   1.000
    H47     H    0.53900   0.76740   0.49370   1.000
    C35     C    0.56640   0.84470   0.46130   1.000
    C36     C    0.59280   0.79500   0.42000   1.000
    H48     H    0.58970   0.68560   0.42400   1.000
    C37     C    0.58090   0.85250   0.43360   1.000
    C38     C    0.54730   0.91090   0.47580   1.000
    C39     C    0.60040   0.80160   0.38990   1.000
    H49     H    0.58270   0.89750   0.42370   1.000
    C40     C    0.59280   0.80040   0.36360   1.000
    B37     B    0.58460   0.79770   0.33080   1.000
    B38     B    0.58850   0.71730   0.31150   1.000
    B39     B    0.67530   0.82060   0.31070   1.000
    B40     B    0.63790   0.89250   0.31100   1.000
    B41     B    0.52940   0.83060   0.31000   1.000
    B42     B    0.49570   0.72370   0.31210   1.000
    H50     H    0.59080   0.66460   0.32190   1.000
    B43     B    0.53320   0.70530   0.28040   1.000
    B44     B    0.64410   0.76020   0.28020   1.000
    H51     H    0.73600   0.83700   0.32080   1.000
    B45     B    0.66940   0.86740   0.27960   1.000
    C41     C    0.58630   0.87150   0.28270   1.000
    H52     H    0.67200   0.95500   0.32120   1.000
    C42     C    0.50450   0.77090   0.28390   1.000
    H53     H    0.48930   0.85480   0.31840   1.000
    H54     H    0.43710   0.67680   0.32280   1.000
    H55     H    0.49550   0.64360   0.26990   1.000
    H56     H    0.68340   0.73570   0.27130   1.000
    H57     H    0.72610   0.91680   0.26870   1.000
    H58     H    0.58490   0.92630   0.27370   1.000
    H59     H    0.44140   0.75160   0.27520   1.000
    C43     C    0.62670   0.81160   0.36300   1.000
    C44     C    0.68420   0.91280   0.28442   1.000
    H60     H    0.69290   0.97360   0.27680   1.000
    C45     C    0.60180   0.81030   0.28323   1.000
    H61     H    0.54080   0.79080   0.27280   1.000
    B46     B    0.65560   0.82360   0.33120   1.000
    B47     B    0.66390   0.74670   0.31160   1.000
    H62     H    0.66240   0.69230   0.32220   1.000
    B48     B    0.74940   0.84590   0.31510   1.000
    H63     H    0.80360   0.85590   0.32810   1.000
    B49     B    0.72050   0.92060   0.31450   1.000
    H64     H    0.75330   0.97910   0.32700   1.000
    B50     B    0.61260   0.86650   0.30750   1.000
    H65     H    0.57140   0.89250   0.31280   1.000
    B51     B    0.57150   0.75390   0.30800   1.000
    H66     H    0.50760   0.70640   0.31510   1.000
    B52     B    0.62060   0.73960   0.27895   1.000
    H67     H    0.58700   0.67900   0.26750   1.000
    B53     B    0.72860   0.79550   0.28075   1.000
    H68     H    0.76790   0.77170   0.27140   1.000
    B54     B    0.76370   0.90290   0.28242   1.000
    H69     H    0.82560   0.94970   0.27370   1.000
    Cu4     Cu   0.94910   0.47480   0.02270   1.000
    O13     O    0.02040   0.58330   0.03700   1.000
    O14     O    0.89130   0.37370   0.00420   1.000
    O15     O    0.89600   0.52050   0.00320   1.000
    O16     O    0.01580   0.43610   0.03710   1.000
    C46     C    0.08920   0.63870   0.02220   1.000
    C47     C    0.15340   0.71690   0.03910   1.000
    C48     C    0.22100   0.77520   0.02530   1.000
    C49     C    0.14340   0.72630   0.06640   1.000
    H70     H    0.22840   0.76740   0.00630   1.000
    C50     C    0.27830   0.84470   0.03870   1.000
    C51     C    0.20220   0.79500   0.08000   1.000
    H71     H    0.09590   0.68560   0.07600   1.000
    C52     C    0.27160   0.85250   0.06640   1.000
    C53     C    0.36360   0.91090   0.02420   1.000
    C54     C    0.20120   0.80160   0.11010   1.000
    H72     H    0.31480   0.89750   0.07630   1.000
    C55     C    0.20760   0.80040   0.13640   1.000
    B55     B    0.21310   0.79770   0.16920   1.000
    B56     B    0.12880   0.71730   0.18850   1.000
    B57     B    0.14530   0.82060   0.18930   1.000
    B58     B    0.25460   0.89250   0.18900   1.000
    B59     B    0.30120   0.83060   0.19000   1.000
    B60     B    0.22800   0.72370   0.18790   1.000
    H73     H    0.07380   0.66460   0.17810   1.000
    B61     B    0.17210   0.70530   0.21960   1.000
    B62     B    0.11610   0.76020   0.21980   1.000
    H74     H    0.10100   0.83700   0.17920   1.000
    B63     B    0.19800   0.86740   0.22040   1.000
    C56     C    0.28520   0.87150   0.21730   1.000
    H75     H    0.28300   0.95500   0.17880   1.000
    C57     C    0.26640   0.77090   0.21610   1.000
    H76     H    0.36550   0.85480   0.18160   1.000
    H77     H    0.23970   0.67680   0.17720   1.000
    H78     H    0.14810   0.64360   0.23010   1.000
    H79     H    0.05230   0.73570   0.22870   1.000
    H80     H    0.19070   0.91680   0.23130   1.000
    H81     H    0.34140   0.92630   0.22630   1.000
    H82     H    0.31020   0.75160   0.22480   1.000
    C58     C    0.18490   0.81160   0.13700   1.000
    C59     C    0.22860   0.91280   0.21558   1.000
    H83     H    0.28070   0.97360   0.22320   1.000
    C60     C    0.20850   0.81030   0.21677   1.000
    H84     H    0.25000   0.79080   0.22720   1.000
    B64     B    0.16800   0.82360   0.16880   1.000
    B65     B    0.08280   0.74670   0.18840   1.000
    H85     H    0.02990   0.69230   0.17780   1.000
    B66     B    0.09650   0.84590   0.18490   1.000
    H86     H    0.05230   0.85590   0.17190   1.000
    B67     B    0.20010   0.92060   0.18550   1.000
    H87     H    0.22580   0.97910   0.17300   1.000
    B68     B    0.25390   0.86650   0.19250   1.000
    H88     H    0.32110   0.89250   0.18720   1.000
    B69     B    0.18240   0.75390   0.19200   1.000
    H89     H    0.19880   0.70640   0.18490   1.000
    B70     B    0.11900   0.73960   0.22105   1.000
    H90     H    0.09200   0.67900   0.23250   1.000
    B71     B    0.06690   0.79550   0.21925   1.000
    H91     H    0.00380   0.77170   0.22860   1.000
    B72     B    0.13920   0.90290   0.21758   1.000
    H92     H    0.12410   0.94970   0.22630   1.000
    Cu5     Cu   0.52570   0.05090   0.02270   1.000
    O17     O    0.56290   0.97960   0.03700   1.000
    O18     O    0.48240   0.10870   0.00420   1.000
    O19     O    0.62450   0.10400   0.00320   1.000
    O20     O    0.42030   0.98420   0.03710   1.000
    C61     C    0.54950   0.91080   0.02220   1.000
    C62     C    0.56350   0.84660   0.03910   1.000
    C63     C    0.55420   0.77900   0.02530   1.000
    C64     C    0.58290   0.85660   0.06640   1.000
    H93     H    0.53900   0.77160   0.00630   1.000
    C65     C    0.56640   0.72170   0.03870   1.000
    C66     C    0.59280   0.79780   0.08000   1.000
    H94     H    0.58970   0.90410   0.07600   1.000
    C67     C    0.58090   0.72840   0.06640   1.000
    C68     C    0.54730   0.63640   0.02420   1.000
    C69     C    0.60040   0.79880   0.11010   1.000
    H95     H    0.58270   0.68520   0.07630   1.000
    C70     C    0.59280   0.79240   0.13640   1.000
    B73     B    0.58460   0.78690   0.16920   1.000
    B74     B    0.58850   0.87120   0.18850   1.000
    B75     B    0.67530   0.85470   0.18930   1.000
    B76     B    0.63790   0.74540   0.18900   1.000
    B77     B    0.52940   0.69880   0.19000   1.000
    B78     B    0.49570   0.77200   0.18790   1.000
    H96     H    0.59080   0.92620   0.17810   1.000
    B79     B    0.53320   0.82790   0.21960   1.000
    B80     B    0.64410   0.88390   0.21980   1.000
    H97     H    0.73600   0.89900   0.17920   1.000
    B81     B    0.66940   0.80200   0.22040   1.000
    C71     C    0.58630   0.71480   0.21730   1.000
    H98     H    0.67200   0.71700   0.17880   1.000
    C72     C    0.50450   0.73360   0.21610   1.000
    H99     H    0.48930   0.63450   0.18160   1.000
    H100    H    0.43710   0.76030   0.17720   1.000
    H101    H    0.49550   0.85190   0.23010   1.000
    H102    H    0.68340   0.94770   0.22870   1.000
    H103    H    0.72610   0.80930   0.23130   1.000
    H104    H    0.58490   0.65860   0.22630   1.000
    H105    H    0.44140   0.68980   0.22480   1.000
    C73     C    0.62670   0.81510   0.13700   1.000
    C74     C    0.68420   0.77140   0.21558   1.000
    H106    H    0.69290   0.71930   0.22320   1.000
    C75     C    0.60180   0.79150   0.21677   1.000
    H107    H    0.54080   0.75000   0.22720   1.000
    B82     B    0.65560   0.83200   0.16880   1.000
    B83     B    0.66390   0.91720   0.18840   1.000
    H108    H    0.66240   0.97010   0.17780   1.000
    B84     B    0.74940   0.90350   0.18490   1.000
    H109    H    0.80360   0.94770   0.17190   1.000
    B85     B    0.72050   0.79990   0.18550   1.000
    H110    H    0.75330   0.77420   0.17300   1.000
    B86     B    0.61260   0.74610   0.19250   1.000
    H111    H    0.57140   0.67890   0.18720   1.000
    B87     B    0.57150   0.81760   0.19200   1.000
    H112    H    0.50760   0.80120   0.18490   1.000
    B88     B    0.62060   0.88100   0.22105   1.000
    H113    H    0.58700   0.90800   0.23250   1.000
    B89     B    0.72860   0.93310   0.21925   1.000
    H114    H    0.76790   0.99620   0.22860   1.000
    B90     B    0.76370   0.86080   0.21758   1.000
    H115    H    0.82560   0.87590   0.22630   1.000
    Cu6     Cu   0.52520   0.47430   0.02270   1.000
    O21     O    0.41670   0.43710   0.03700   1.000
    O22     O    0.62630   0.51760   0.00420   1.000
    O23     O    0.47950   0.37550   0.00320   1.000
    O24     O    0.56390   0.57970   0.03710   1.000
    C76     C    0.36130   0.45050   0.02220   1.000
    C77     C    0.28310   0.43650   0.03910   1.000
    C78     C    0.22480   0.44580   0.02530   1.000
    C79     C    0.27370   0.41710   0.06640   1.000
    H116    H    0.23260   0.46100   0.00630   1.000
    C80     C    0.15530   0.43360   0.03870   1.000
    C81     C    0.20500   0.40720   0.08000   1.000
    H117    H    0.31440   0.41030   0.07600   1.000
    C82     C    0.14750   0.41910   0.06640   1.000
    C83     C    0.08910   0.45270   0.02420   1.000
    C84     C    0.19840   0.39960   0.11010   1.000
    H118    H    0.10250   0.41730   0.07630   1.000
    C85     C    0.19960   0.40720   0.13640   1.000
    B91     B    0.20230   0.41540   0.16920   1.000
    B92     B    0.28270   0.41150   0.18850   1.000
    B93     B    0.17940   0.32470   0.18930   1.000
    B94     B    0.10750   0.36210   0.18900   1.000
    B95     B    0.16940   0.47060   0.19000   1.000
    B96     B    0.27630   0.50430   0.18790   1.000
    H119    H    0.33540   0.40920   0.17810   1.000
    B97     B    0.29470   0.46680   0.21960   1.000
    B98     B    0.23980   0.35590   0.21980   1.000
    H120    H    0.16300   0.26400   0.17920   1.000
    B99     B    0.13260   0.33060   0.22040   1.000
    C86     C    0.12850   0.41370   0.21730   1.000
    H121    H    0.04500   0.32800   0.17880   1.000
    C87     C    0.22910   0.49550   0.21610   1.000
    H122    H    0.14520   0.51070   0.18160   1.000
    H123    H    0.32320   0.56290   0.17720   1.000
    H124    H    0.35640   0.50450   0.23010   1.000
    H125    H    0.26430   0.31660   0.22870   1.000
    H126    H    0.08320   0.27390   0.23130   1.000
    H127    H    0.07370   0.41510   0.22630   1.000
    H128    H    0.24840   0.55860   0.22480   1.000
    C88     C    0.18840   0.37330   0.13700   1.000
    C89     C    0.08720   0.31580   0.21558   1.000
    H129    H    0.02640   0.30710   0.22320   1.000
    C90     C    0.18970   0.39820   0.21677   1.000
    H130    H    0.20920   0.45920   0.22720   1.000
    B100    B    0.17640   0.34440   0.16880   1.000
    B101    B    0.25330   0.33610   0.18840   1.000
    H131    H    0.30770   0.33760   0.17780   1.000
    B102    B    0.15410   0.25060   0.18490   1.000
    H132    H    0.14410   0.19640   0.17190   1.000
    B103    B    0.07940   0.27950   0.18550   1.000
    H133    H    0.02090   0.24670   0.17300   1.000
    B104    B    0.13350   0.38740   0.19250   1.000
    H134    H    0.10750   0.42860   0.18720   1.000
    B105    B    0.24610   0.42850   0.19200   1.000
    H135    H    0.29360   0.49240   0.18490   1.000
    B106    B    0.26040   0.37940   0.22105   1.000
    H136    H    0.32100   0.41300   0.23250   1.000
    B107    B    0.20450   0.27140   0.21925   1.000
    H137    H    0.22830   0.23210   0.22860   1.000
    B108    B    0.09710   0.23630   0.21758   1.000
    H138    H    0.05030   0.17440   0.22630   1.000
    Cu7     Cu   0.47480   0.94910   0.52270   1.000
    O25     O    0.58330   0.02040   0.53700   1.000
    O26     O    0.37370   0.89130   0.50420   1.000
    O27     O    0.52050   0.89600   0.50320   1.000
    O28     O    0.43610   0.01580   0.53710   1.000
    C91     C    0.63870   0.08920   0.52220   1.000
    C92     C    0.71690   0.15340   0.53910   1.000
    C93     C    0.77520   0.22100   0.52530   1.000
    C94     C    0.72630   0.14340   0.56640   1.000
    H139    H    0.76740   0.22840   0.50630   1.000
    C95     C    0.84470   0.27830   0.53870   1.000
    C96     C    0.79500   0.20220   0.58000   1.000
    H140    H    0.68560   0.09590   0.57600   1.000
    C97     C    0.85250   0.27160   0.56640   1.000
    C98     C    0.91090   0.36360   0.52420   1.000
    C99     C    0.80160   0.20120   0.61010   1.000
    H141    H    0.89750   0.31480   0.57630   1.000
    C100    C    0.80040   0.20760   0.63640   1.000
    B109    B    0.79770   0.21310   0.66920   1.000
    B110    B    0.71730   0.12880   0.68850   1.000
    B111    B    0.82060   0.14530   0.68930   1.000
    B112    B    0.89250   0.25460   0.68900   1.000
    B113    B    0.83060   0.30120   0.69000   1.000
    B114    B    0.72370   0.22800   0.68790   1.000
    H142    H    0.66460   0.07380   0.67810   1.000
    B115    B    0.70530   0.17210   0.71960   1.000
    B116    B    0.76020   0.11610   0.71980   1.000
    H143    H    0.83700   0.10100   0.67920   1.000
    B117    B    0.86740   0.19800   0.72040   1.000
    C101    C    0.87150   0.28520   0.71730   1.000
    H144    H    0.95500   0.28300   0.67880   1.000
    C102    C    0.77090   0.26640   0.71610   1.000
    H145    H    0.85480   0.36550   0.68160   1.000
    H146    H    0.67680   0.23970   0.67720   1.000
    H147    H    0.64360   0.14810   0.73010   1.000
    H148    H    0.73570   0.05230   0.72870   1.000
    H149    H    0.91680   0.19070   0.73130   1.000
    H150    H    0.92630   0.34140   0.72630   1.000
    H151    H    0.75160   0.31020   0.72480   1.000
    C103    C    0.81160   0.18490   0.63700   1.000
    C104    C    0.91280   0.22860   0.71558   1.000
    H152    H    0.97360   0.28070   0.72320   1.000
    C105    C    0.81030   0.20850   0.71677   1.000
    H153    H    0.79080   0.25000   0.72720   1.000
    B118    B    0.82360   0.16800   0.66880   1.000
    B119    B    0.74670   0.08280   0.68840   1.000
    H154    H    0.69230   0.02990   0.67780   1.000
    B120    B    0.84590   0.09650   0.68490   1.000
    H155    H    0.85590   0.05230   0.67190   1.000
    B121    B    0.92060   0.20010   0.68550   1.000
    H156    H    0.97910   0.22580   0.67300   1.000
    B122    B    0.86650   0.25390   0.69250   1.000
    H157    H    0.89250   0.32110   0.68720   1.000
    B123    B    0.75390   0.18240   0.69200   1.000
    H158    H    0.70640   0.19880   0.68490   1.000
    B124    B    0.73960   0.11900   0.72105   1.000
    H159    H    0.67900   0.09200   0.73250   1.000
    B125    B    0.79550   0.06690   0.71925   1.000
    H160    H    0.77170   0.00380   0.72860   1.000
    B126    B    0.90290   0.13920   0.71758   1.000
    H161    H    0.94970   0.12410   0.72630   1.000
    Cu8     Cu   0.05090   0.52570   0.52270   1.000
    O29     O    0.97960   0.56290   0.53700   1.000
    O30     O    0.10870   0.48240   0.50420   1.000
    O31     O    0.10400   0.62450   0.50320   1.000
    O32     O    0.98420   0.42030   0.53710   1.000
    C106    C    0.91080   0.54950   0.52220   1.000
    C107    C    0.84660   0.56350   0.53910   1.000
    C108    C    0.77900   0.55420   0.52530   1.000
    C109    C    0.85660   0.58290   0.56640   1.000
    H162    H    0.77160   0.53900   0.50630   1.000
    C110    C    0.72170   0.56640   0.53870   1.000
    C111    C    0.79780   0.59280   0.58000   1.000
    H163    H    0.90410   0.58970   0.57600   1.000
    C112    C    0.72840   0.58090   0.56640   1.000
    C113    C    0.63640   0.54730   0.52420   1.000
    C114    C    0.79880   0.60040   0.61010   1.000
    H164    H    0.68520   0.58270   0.57630   1.000
    C115    C    0.79240   0.59280   0.63640   1.000
    B127    B    0.78690   0.58460   0.66920   1.000
    B128    B    0.87120   0.58850   0.68850   1.000
    B129    B    0.85470   0.67530   0.68930   1.000
    B130    B    0.74540   0.63790   0.68900   1.000
    B131    B    0.69880   0.52940   0.69000   1.000
    B132    B    0.77200   0.49570   0.68790   1.000
    H165    H    0.92620   0.59080   0.67810   1.000
    B133    B    0.82790   0.53320   0.71960   1.000
    B134    B    0.88390   0.64410   0.71980   1.000
    H166    H    0.89900   0.73600   0.67920   1.000
    B135    B    0.80200   0.66940   0.72040   1.000
    C116    C    0.71480   0.58630   0.71730   1.000
    H167    H    0.71700   0.67200   0.67880   1.000
    C117    C    0.73360   0.50450   0.71610   1.000
    H168    H    0.63450   0.48930   0.68160   1.000
    H169    H    0.76030   0.43710   0.67720   1.000
    H170    H    0.85190   0.49550   0.73010   1.000
    H171    H    0.94770   0.68340   0.72870   1.000
    H172    H    0.80930   0.72610   0.73130   1.000
    H173    H    0.65860   0.58490   0.72630   1.000
    H174    H    0.68980   0.44140   0.72480   1.000
    C118    C    0.81510   0.62670   0.63700   1.000
    C119    C    0.77140   0.68420   0.71558   1.000
    H175    H    0.71930   0.69290   0.72320   1.000
    C120    C    0.79150   0.60180   0.71677   1.000
    H176    H    0.75000   0.54080   0.72720   1.000
    B136    B    0.83200   0.65560   0.66880   1.000
    B137    B    0.91720   0.66390   0.68840   1.000
    H177    H    0.97010   0.66240   0.67780   1.000
    B138    B    0.90350   0.74940   0.68490   1.000
    H178    H    0.94770   0.80360   0.67190   1.000
    B139    B    0.79990   0.72050   0.68550   1.000
    H179    H    0.77420   0.75330   0.67300   1.000
    B140    B    0.74610   0.61260   0.69250   1.000
    H180    H    0.67890   0.57140   0.68720   1.000
    B141    B    0.81760   0.57150   0.69200   1.000
    H181    H    0.80120   0.50760   0.68490   1.000
    B142    B    0.88100   0.62060   0.72105   1.000
    H182    H    0.90800   0.58700   0.73250   1.000
    B143    B    0.93310   0.72860   0.71925   1.000
    H183    H    0.99620   0.76790   0.72860   1.000
    B144    B    0.86080   0.76370   0.71758   1.000
    H184    H    0.87590   0.82560   0.72630   1.000
    Cu9     Cu   0.47430   0.52520   0.52270   1.000
    O33     O    0.43710   0.41670   0.53700   1.000
    O34     O    0.51760   0.62630   0.50420   1.000
    O35     O    0.37550   0.47950   0.50320   1.000
    O36     O    0.57970   0.56390   0.53710   1.000
    C121    C    0.45050   0.36130   0.52220   1.000
    C122    C    0.43650   0.28310   0.53910   1.000
    C123    C    0.44580   0.22480   0.52530   1.000
    C124    C    0.41710   0.27370   0.56640   1.000
    H185    H    0.46100   0.23260   0.50630   1.000
    C125    C    0.43360   0.15530   0.53870   1.000
    C126    C    0.40720   0.20500   0.58000   1.000
    H186    H    0.41030   0.31440   0.57600   1.000
    C127    C    0.41910   0.14750   0.56640   1.000
    C128    C    0.45270   0.08910   0.52420   1.000
    C129    C    0.39960   0.19840   0.61010   1.000
    H187    H    0.41730   0.10250   0.57630   1.000
    C130    C    0.40720   0.19960   0.63640   1.000
    B145    B    0.41540   0.20230   0.66920   1.000
    B146    B    0.41150   0.28270   0.68850   1.000
    B147    B    0.32470   0.17940   0.68930   1.000
    B148    B    0.36210   0.10750   0.68900   1.000
    B149    B    0.47060   0.16940   0.69000   1.000
    B150    B    0.50430   0.27630   0.68790   1.000
    H188    H    0.40920   0.33540   0.67810   1.000
    B151    B    0.46680   0.29470   0.71960   1.000
    B152    B    0.35590   0.23980   0.71980   1.000
    H189    H    0.26400   0.16300   0.67920   1.000
    B153    B    0.33060   0.13260   0.72040   1.000
    C131    C    0.41370   0.12850   0.71730   1.000
    H190    H    0.32800   0.04500   0.67880   1.000
    C132    C    0.49550   0.22910   0.71610   1.000
    H191    H    0.51070   0.14520   0.68160   1.000
    H192    H    0.56290   0.32320   0.67720   1.000
    H193    H    0.50450   0.35640   0.73010   1.000
    H194    H    0.31660   0.26430   0.72870   1.000
    H195    H    0.27390   0.08320   0.73130   1.000
    H196    H    0.41510   0.07370   0.72630   1.000
    H197    H    0.55860   0.24840   0.72480   1.000
    C133    C    0.37330   0.18840   0.63700   1.000
    C134    C    0.31580   0.08720   0.71558   1.000
    H198    H    0.30710   0.02640   0.72320   1.000
    C135    C    0.39820   0.18970   0.71677   1.000
    H199    H    0.45920   0.20920   0.72720   1.000
    B154    B    0.34440   0.17640   0.66880   1.000
    B155    B    0.33610   0.25330   0.68840   1.000
    H200    H    0.33760   0.30770   0.67780   1.000
    B156    B    0.25060   0.15410   0.68490   1.000
    H201    H    0.19640   0.14410   0.67190   1.000
    B157    B    0.27950   0.07940   0.68550   1.000
    H202    H    0.24670   0.02090   0.67300   1.000
    B158    B    0.38740   0.13350   0.69250   1.000
    H203    H    0.42860   0.10750   0.68720   1.000
    B159    B    0.42850   0.24610   0.69200   1.000
    H204    H    0.49240   0.29360   0.68490   1.000
    B160    B    0.37940   0.26040   0.72105   1.000
    H205    H    0.41300   0.32100   0.73250   1.000
    B161    B    0.27140   0.20450   0.71925   1.000
    H206    H    0.23210   0.22830   0.72860   1.000
    B162    B    0.23630   0.09710   0.71758   1.000
    H207    H    0.17440   0.05030   0.72630   1.000
    Cu10    Cu   0.05090   0.52520   0.97730   1.000
    O37     O    0.97960   0.41670   0.96300   1.000
    O38     O    0.10870   0.62630   0.99580   1.000
    O39     O    0.10400   0.47950   0.99680   1.000
    O40     O    0.98420   0.56390   0.96290   1.000
    C136    C    0.91080   0.36130   0.97780   1.000
    C137    C    0.84660   0.28310   0.96090   1.000
    C138    C    0.77900   0.22480   0.97470   1.000
    C139    C    0.85660   0.27370   0.93360   1.000
    H208    H    0.77160   0.23260   0.99370   1.000
    C140    C    0.72170   0.15530   0.96130   1.000
    C141    C    0.79780   0.20500   0.92000   1.000
    H209    H    0.90410   0.31440   0.92400   1.000
    C142    C    0.72840   0.14750   0.93360   1.000
    C143    C    0.63640   0.08910   0.97580   1.000
    C144    C    0.79880   0.19840   0.88990   1.000
    H210    H    0.68520   0.10250   0.92370   1.000
    C145    C    0.79240   0.19960   0.86360   1.000
    B163    B    0.78690   0.20230   0.83080   1.000
    B164    B    0.87120   0.28270   0.81150   1.000
    B165    B    0.85470   0.17940   0.81070   1.000
    B166    B    0.74540   0.10750   0.81100   1.000
    B167    B    0.69880   0.16940   0.81000   1.000
    B168    B    0.77200   0.27630   0.81210   1.000
    H211    H    0.92620   0.33540   0.82190   1.000
    B169    B    0.82790   0.29470   0.78040   1.000
    B170    B    0.88390   0.23980   0.78020   1.000
    H212    H    0.89900   0.16300   0.82080   1.000
    B171    B    0.80200   0.13260   0.77960   1.000
    C146    C    0.71480   0.12850   0.78270   1.000
    H213    H    0.71700   0.04500   0.82120   1.000
    C147    C    0.73360   0.22910   0.78390   1.000
    H214    H    0.63450   0.14520   0.81840   1.000
    H215    H    0.76030   0.32320   0.82280   1.000
    H216    H    0.85190   0.35640   0.76990   1.000
    H217    H    0.94770   0.26430   0.77130   1.000
    H218    H    0.80930   0.08320   0.76870   1.000
    H219    H    0.65860   0.07370   0.77370   1.000
    H220    H    0.68980   0.24840   0.77520   1.000
    C148    C    0.81510   0.18840   0.86300   1.000
    C149    C    0.77140   0.08720   0.78442   1.000
    H221    H    0.71930   0.02640   0.77680   1.000
    C150    C    0.79150   0.18970   0.78323   1.000
    H222    H    0.75000   0.20920   0.77280   1.000
    B172    B    0.83200   0.17640   0.83120   1.000
    B173    B    0.91720   0.25330   0.81160   1.000
    H223    H    0.97010   0.30770   0.82220   1.000
    B174    B    0.90350   0.15410   0.81510   1.000
    H224    H    0.94770   0.14410   0.82810   1.000
    B175    B    0.79990   0.07940   0.81450   1.000
    H225    H    0.77420   0.02090   0.82700   1.000
    B176    B    0.74610   0.13350   0.80750   1.000
    H226    H    0.67890   0.10750   0.81280   1.000
    B177    B    0.81760   0.24610   0.80800   1.000
    H227    H    0.80120   0.29360   0.81510   1.000
    B178    B    0.88100   0.26040   0.77895   1.000
    H228    H    0.90800   0.32100   0.76750   1.000
    B179    B    0.93310   0.20450   0.78075   1.000
    H229    H    0.99620   0.22830   0.77140   1.000
    B180    B    0.86080   0.09710   0.78242   1.000
    H230    H    0.87590   0.05030   0.77370   1.000
    Cu11    Cu   0.47430   0.94910   0.97730   1.000
    O41     O    0.43710   0.02040   0.96300   1.000
    O42     O    0.51760   0.89130   0.99580   1.000
    O43     O    0.37550   0.89600   0.99680   1.000
    O44     O    0.57970   0.01580   0.96290   1.000
    C151    C    0.45050   0.08920   0.97780   1.000
    C152    C    0.43650   0.15340   0.96090   1.000
    C153    C    0.44580   0.22100   0.97470   1.000
    C154    C    0.41710   0.14340   0.93360   1.000
    H231    H    0.46100   0.22840   0.99370   1.000
    C155    C    0.43360   0.27830   0.96130   1.000
    C156    C    0.40720   0.20220   0.92000   1.000
    H232    H    0.41030   0.09590   0.92400   1.000
    C157    C    0.41910   0.27160   0.93360   1.000
    C158    C    0.45270   0.36360   0.97580   1.000
    C159    C    0.39960   0.20120   0.88990   1.000
    H233    H    0.41730   0.31480   0.92370   1.000
    C160    C    0.40720   0.20760   0.86360   1.000
    B181    B    0.41540   0.21310   0.83080   1.000
    B182    B    0.41150   0.12880   0.81150   1.000
    B183    B    0.32470   0.14530   0.81070   1.000
    B184    B    0.36210   0.25460   0.81100   1.000
    B185    B    0.47060   0.30120   0.81000   1.000
    B186    B    0.50430   0.22800   0.81210   1.000
    H234    H    0.40920   0.07380   0.82190   1.000
    B187    B    0.46680   0.17210   0.78040   1.000
    B188    B    0.35590   0.11610   0.78020   1.000
    H235    H    0.26400   0.10100   0.82080   1.000
    B189    B    0.33060   0.19800   0.77960   1.000
    C161    C    0.41370   0.28520   0.78270   1.000
    H236    H    0.32800   0.28300   0.82120   1.000
    C162    C    0.49550   0.26640   0.78390   1.000
    H237    H    0.51070   0.36550   0.81840   1.000
    H238    H    0.56290   0.23970   0.82280   1.000
    H239    H    0.50450   0.14810   0.76990   1.000
    H240    H    0.31660   0.05230   0.77130   1.000
    H241    H    0.27390   0.19070   0.76870   1.000
    H242    H    0.41510   0.34140   0.77370   1.000
    H243    H    0.55860   0.31020   0.77520   1.000
    C163    C    0.37330   0.18490   0.86300   1.000
    C164    C    0.31580   0.22860   0.78442   1.000
    H244    H    0.30710   0.28070   0.77680   1.000
    C165    C    0.39820   0.20850   0.78323   1.000
    H245    H    0.45920   0.25000   0.77280   1.000
    B190    B    0.34440   0.16800   0.83120   1.000
    B191    B    0.33610   0.08280   0.81160   1.000
    H246    H    0.33760   0.02990   0.82220   1.000
    B192    B    0.25060   0.09650   0.81510   1.000
    H247    H    0.19640   0.05230   0.82810   1.000
    B193    B    0.27950   0.20010   0.81450   1.000
    H248    H    0.24670   0.22580   0.82700   1.000
    B194    B    0.38740   0.25390   0.80750   1.000
    H249    H    0.42860   0.32110   0.81280   1.000
    B195    B    0.42850   0.18240   0.80800   1.000
    H250    H    0.49240   0.19880   0.81510   1.000
    B196    B    0.37940   0.11900   0.77895   1.000
    H251    H    0.41300   0.09200   0.76750   1.000
    B197    B    0.27140   0.06690   0.78075   1.000
    H252    H    0.23210   0.00380   0.77140   1.000
    B198    B    0.23630   0.13920   0.78242   1.000
    H253    H    0.17440   0.12410   0.77370   1.000
    Cu12    Cu   0.47480   0.52570   0.97730   1.000
    O45     O    0.58330   0.56290   0.96300   1.000
    O46     O    0.37370   0.48240   0.99580   1.000
    O47     O    0.52050   0.62450   0.99680   1.000
    O48     O    0.43610   0.42030   0.96290   1.000
    C166    C    0.63870   0.54950   0.97780   1.000
    C167    C    0.71690   0.56350   0.96090   1.000
    C168    C    0.77520   0.55420   0.97470   1.000
    C169    C    0.72630   0.58290   0.93360   1.000
    H254    H    0.76740   0.53900   0.99370   1.000
    C170    C    0.84470   0.56640   0.96130   1.000
    C171    C    0.79500   0.59280   0.92000   1.000
    H255    H    0.68560   0.58970   0.92400   1.000
    C172    C    0.85250   0.58090   0.93360   1.000
    C173    C    0.91090   0.54730   0.97580   1.000
    C174    C    0.80160   0.60040   0.88990   1.000
    H256    H    0.89750   0.58270   0.92370   1.000
    C175    C    0.80040   0.59280   0.86360   1.000
    B199    B    0.79770   0.58460   0.83080   1.000
    B200    B    0.71730   0.58850   0.81150   1.000
    B201    B    0.82060   0.67530   0.81070   1.000
    B202    B    0.89250   0.63790   0.81100   1.000
    B203    B    0.83060   0.52940   0.81000   1.000
    B204    B    0.72370   0.49570   0.81210   1.000
    H257    H    0.66460   0.59080   0.82190   1.000
    B205    B    0.70530   0.53320   0.78040   1.000
    B206    B    0.76020   0.64410   0.78020   1.000
    H258    H    0.83700   0.73600   0.82080   1.000
    B207    B    0.86740   0.66940   0.77960   1.000
    C176    C    0.87150   0.58630   0.78270   1.000
    H259    H    0.95500   0.67200   0.82120   1.000
    C177    C    0.77090   0.50450   0.78390   1.000
    H260    H    0.85480   0.48930   0.81840   1.000
    H261    H    0.67680   0.43710   0.82280   1.000
    H262    H    0.64360   0.49550   0.76990   1.000
    H263    H    0.73570   0.68340   0.77130   1.000
    H264    H    0.91680   0.72610   0.76870   1.000
    H265    H    0.92630   0.58490   0.77370   1.000
    H266    H    0.75160   0.44140   0.77520   1.000
    C178    C    0.81160   0.62670   0.86300   1.000
    C179    C    0.91280   0.68420   0.78442   1.000
    H267    H    0.97360   0.69290   0.77680   1.000
    C180    C    0.81030   0.60180   0.78323   1.000
    H268    H    0.79080   0.54080   0.77280   1.000
    B208    B    0.82360   0.65560   0.83120   1.000
    B209    B    0.74670   0.66390   0.81160   1.000
    H269    H    0.69230   0.66240   0.82220   1.000
    B210    B    0.84590   0.74940   0.81510   1.000
    H270    H    0.85590   0.80360   0.82810   1.000
    B211    B    0.92060   0.72050   0.81450   1.000
    H271    H    0.97910   0.75330   0.82700   1.000
    B212    B    0.86650   0.61260   0.80750   1.000
    H272    H    0.89250   0.57140   0.81280   1.000
    B213    B    0.75390   0.57150   0.80800   1.000
    H273    H    0.70640   0.50760   0.81510   1.000
    B214    B    0.73960   0.62060   0.77895   1.000
    H274    H    0.67900   0.58700   0.76750   1.000
    B215    B    0.79550   0.72860   0.78075   1.000
    H275    H    0.77170   0.76790   0.77140   1.000
    B216    B    0.90290   0.76370   0.78242   1.000
    H276    H    0.94970   0.82560   0.77370   1.000
    Co1     Co   0.20570   0.79430   0.25000   1.000
    Co2     Co   0.15700   0.84300   0.25000   1.000
    Co3     Co   0.20570   0.41140   0.25000   1.000
    Co4     Co   0.15700   0.31400   0.25000   1.000
    Co5     Co   0.58860   0.79430   0.25000   1.000
    Co6     Co   0.68600   0.84300   0.25000   1.000
    Co7     Co   0.79430   0.20570   0.75000   1.000
    Co8     Co   0.84300   0.15700   0.75000   1.000
    Co9     Co   0.79430   0.58860   0.75000   1.000
    Co10    Co   0.84300   0.68600   0.75000   1.000
    Co11    Co   0.41140   0.20570   0.75000   1.000
    Co12    Co   0.31400   0.15700   0.75000   1.000
