# CIF file generated by openbabel 2.4.1, see http://openbabel.sf.net
data_I
_chemical_name_common 'image0'
_cell_length_a 12.072
_cell_length_b 14.124
_cell_length_c 14.338
_cell_angle_alpha 104.16
_cell_angle_beta 104.51
_cell_angle_gamma 114.4
_space_group_name_H-M_alt 'P 1'
_space_group_name_Hall 'P 1'
loop_
    _symmetry_equiv_pos_as_xyz
    x,y,z
loop_
    _atom_site_label
    _atom_site_type_symbol
    _atom_site_fract_x
    _atom_site_fract_y
    _atom_site_fract_z
    _atom_site_occupancy
    C1      C    0.29510   0.80580   0.82530   1.000
    C2      C    0.32970   0.78870   0.91710   1.000
    H1      H    0.37150   0.84900   0.98180   1.000
    C3      C    0.30190   0.68130   0.91220   1.000
    H2      H    0.32510   0.66990   0.97370   1.000
    C4      C    0.23940   0.59120   0.81550   1.000
    C5      C    0.20480   0.60830   0.72370   1.000
    H3      H    0.16300   0.54800   0.65900   1.000
    C6      C    0.23260   0.71570   0.72850   1.000
    H4      H    0.20940   0.72720   0.66710   1.000
    C7      C    0.20260   0.94270   0.94910   1.000
    C8      C    0.24550   0.90800   0.02540   1.000
    H5      H    0.32680   0.91110   0.04000   1.000
    C9      C    0.16560   0.86580   0.08510   1.000
    H6      H    0.19740   0.84530   0.13830   1.000
    C10     C    0.05130   0.85830   0.06130   1.000
    C11     C    0.00320   0.89430   0.00340   1.000
    H7      H    0.92530   0.89440   0.99980   1.000
    C12     C    0.08280   0.94330   0.93100   1.000
    H8      H    0.05070   0.96880   0.88270   1.000
    C13     C    0.46260   0.26820   0.86580   1.000
    C14     C    0.41250   0.14740   0.85330   1.000
    C15     C    0.45510   0.08370   0.79750   1.000
    H9      H    0.51140   0.11500   0.76600   1.000
    C16     C    0.41300   0.97390   0.78940   1.000
    H10     H    0.44020   0.93150   0.75090   1.000
    C17     C    0.33060   0.92490   0.83760   1.000
    C18     C    0.28780   0.98850   0.89340   1.000
    C19     C    0.32770   0.09940   0.89840   1.000
    H11     H    0.29620   0.14080   0.93270   1.000
    C20     C    0.96700   0.81190   0.11910   1.000
    C21     C    0.22070   0.47820   0.81140   1.000
    C22     C    0.09130   0.99230   0.62520   1.000
    C23     C    0.00240   0.92860   0.65960   1.000
    H12     H    0.98290   0.96230   0.71270   1.000
    C24     C    0.94270   0.81120   0.61140   1.000
    H13     H    0.88240   0.76560   0.63310   1.000
    C25     C    0.97140   0.76060   0.53120   1.000
    H14     H    0.92970   0.68210   0.50070   1.000
    C26     C    0.05870   0.82320   0.49690   1.000
    H15     H    0.07750   0.78930   0.44350   1.000
    C27     C    0.11890   0.94030   0.54480   1.000
    C28     C    0.23380   0.12620   0.59670   1.000
    C29     C    0.32170   0.23870   0.60630   1.000
    C30     C    0.41000   0.27670   0.56410   1.000
    H16     H    0.42820   0.23080   0.51940   1.000
    C31     C    0.39340   0.42070   0.67630   1.000
    H17     H    0.40090   0.48750   0.71610   1.000
    C32     C    0.25550   0.00790   0.44300   1.000
    H18     H    0.26860   0.06810   0.41810   1.000
    H19     H    0.18690   0.93710   0.38500   1.000
    C33     C    0.38410   0.00480   0.47470   1.000
    C34     C    0.40950   0.95310   0.54170   1.000
    H20     H    0.34850   0.92010   0.56910   1.000
    C35     C    0.47280   0.04850   0.43290   1.000
    H21     H    0.45410   0.08040   0.38600   1.000
    Cd1     Cd   0.18790   0.26569   0.77799   1.000
    N1      N    0.31450   0.32420   0.67320   1.000
    N2      N    0.16510   0.10890   0.65640   1.000
    N3      N    0.20860   0.02550   0.52690   1.000
    O1      O    0.40230   0.31450   0.90090   1.000
    O2      O    0.55860   0.31740   0.84400   1.000
    O3      O    0.01510   0.84840   0.21290   1.000
    O4      O    0.85070   0.73800   0.06840   1.000
    O5      O    0.30900   0.47200   0.87520   1.000
    O6      O    0.11910   0.39180   0.74300   1.000
    S1      S    0.48360   0.41800   0.60230   1.000
    C36     C    0.20430   0.94350   0.95140   1.000
    C37     C    0.25040   0.99880   0.05590   1.000
    H22     H    0.33250   0.06500   0.09180   1.000
    C38     C    0.17220   0.95490   0.11020   1.000
    H23     H    0.20560   0.99260   0.18250   1.000
    C39     C    0.04860   0.85850   0.06040   1.000
    C40     C    0.00870   0.80220   0.94880   1.000
    H24     H    0.92770   0.73510   0.91120   1.000
    C41     C    0.08600   0.84400   0.89580   1.000
    H25     H    0.05830   0.80540   0.82420   1.000
    C42     C    0.29750   0.81140   0.83490   1.000
    C43     C    0.40140   0.79230   0.87770   1.000
    H26     H    0.48820   0.85280   0.91020   1.000
    C44     C    0.37840   0.68800   0.87280   1.000
    H27     H    0.44910   0.67880   0.90250   1.000
    C45     C    0.24950   0.59460   0.82390   1.000
    C46     C    0.14620   0.61350   0.78650   1.000
    H28     H    0.05930   0.55380   0.75790   1.000
    C47     C    0.17070   0.72280   0.79090   1.000
    H29     H    0.10030   0.73340   0.76380   1.000
    C48     C    0.70490   0.19420   0.17470   1.000
    C49     C    0.67030   0.21130   0.08290   1.000
    H30     H    0.62850   0.15100   0.01820   1.000
    C50     C    0.69810   0.31870   0.08780   1.000
    H31     H    0.67490   0.33010   0.02630   1.000
    C51     C    0.76060   0.40880   0.18450   1.000
    C52     C    0.79520   0.39170   0.27630   1.000
    H32     H    0.83700   0.45200   0.34100   1.000
    C53     C    0.76740   0.28430   0.27150   1.000
    H33     H    0.79060   0.27280   0.33290   1.000
    C54     C    0.79740   0.05730   0.05090   1.000
    C55     C    0.75450   0.09200   0.97460   1.000
    H34     H    0.67320   0.08890   0.96000   1.000
    C56     C    0.83440   0.13420   0.91490   1.000
    H35     H    0.80260   0.15470   0.86170   1.000
    C57     C    0.94870   0.14170   0.93870   1.000
    C58     C    0.99680   0.10570   0.99660   1.000
    H36     H    0.07470   0.10560   0.00020   1.000
    C59     C    0.91720   0.05670   0.06900   1.000
    H37     H    0.94930   0.03120   0.11730   1.000
    C60     C    0.53740   0.73180   0.13420   1.000
    C61     C    0.58750   0.85260   0.14670   1.000
    C62     C    0.54490   0.91630   0.20250   1.000
    H38     H    0.48860   0.88500   0.23400   1.000
    C63     C    0.58700   0.02610   0.21060   1.000
    H39     H    0.55980   0.06850   0.24910   1.000
    C64     C    0.66940   0.07510   0.16240   1.000
    C65     C    0.71220   0.01150   0.10660   1.000
    C66     C    0.67230   0.90060   0.10160   1.000
    H40     H    0.70380   0.85920   0.06730   1.000
    C67     C    0.03300   0.18810   0.88090   1.000
    C68     C    0.77930   0.52180   0.18860   1.000
    C69     C    0.90870   0.00770   0.37480   1.000
    C70     C    0.99760   0.07140   0.34040   1.000
    H41     H    0.01710   0.03770   0.28730   1.000
    C71     C    0.05730   0.18880   0.38860   1.000
    H42     H    0.11760   0.23440   0.36690   1.000
    C72     C    0.02860   0.23940   0.46880   1.000
    H43     H    0.07030   0.31790   0.49930   1.000
    C73     C    0.94130   0.17680   0.50310   1.000
    H44     H    0.92250   0.21070   0.55650   1.000
    C74     C    0.88110   0.05970   0.45520   1.000
    C75     C    0.76620   0.87380   0.40330   1.000
    C76     C    0.67830   0.76130   0.39370   1.000
    C77     C    0.59000   0.72330   0.43590   1.000
    H45     H    0.57180   0.76920   0.48060   1.000
    C78     C    0.60660   0.57930   0.32370   1.000
    H46     H    0.59910   0.51250   0.28390   1.000
    C79     C    0.74450   0.99210   0.55700   1.000
    H47     H    0.73140   0.93190   0.58190   1.000
    H48     H    0.81310   0.06290   0.61500   1.000
    C80     C    0.61590   0.99520   0.52530   1.000
    C81     C    0.59050   0.04690   0.45830   1.000
    H49     H    0.65150   0.07990   0.43090   1.000
    C82     C    0.52720   0.95150   0.56710   1.000
    H50     H    0.54590   0.91960   0.61400   1.000
    Cd2     Cd   0.81210   0.73431   0.22201   1.000
    N4      N    0.68550   0.67580   0.32680   1.000
    N5      N    0.83490   0.89110   0.34360   1.000
    N6      N    0.79140   0.97450   0.47310   1.000
    O7      O    0.59770   0.68550   0.09910   1.000
    O8      O    0.44140   0.68260   0.15600   1.000
    O9      O    0.98490   0.15160   0.78710   1.000
    O10     O    0.14930   0.26200   0.93160   1.000
    O11     O    0.69100   0.52800   0.12480   1.000
    O12     O    0.88090   0.60820   0.25700   1.000
    S2      S    0.51640   0.58200   0.39770   1.000
    C83     C    0.79570   0.05650   0.04860   1.000
    C84     C    0.74960   0.00120   0.94410   1.000
    H51     H    0.66750   0.93500   0.90820   1.000
    C85     C    0.82780   0.04510   0.88980   1.000
    H52     H    0.79440   0.00740   0.81750   1.000
    C86     C    0.95140   0.14150   0.93960   1.000
    C87     C    0.99130   0.19780   0.05120   1.000
    H53     H    0.07230   0.26490   0.08880   1.000
    C88     C    0.91400   0.15600   0.10420   1.000
    H54     H    0.94170   0.19460   0.17580   1.000
    C89     C    0.70250   0.18860   0.16510   1.000
    C90     C    0.59860   0.20770   0.12230   1.000
    H55     H    0.51180   0.14720   0.08980   1.000
    C91     C    0.62160   0.31200   0.12720   1.000
    H56     H    0.55090   0.32120   0.09750   1.000
    C92     C    0.75050   0.40540   0.17610   1.000
    C93     C    0.85380   0.38650   0.21350   1.000
    H57     H    0.94070   0.44620   0.24210   1.000
    C94     C    0.82930   0.27720   0.20910   1.000
    H58     H    0.89970   0.26660   0.23620   1.000
    Cd3     Cd   0.50000   0.50000   0.00000   1.000
