data_functionalizedCrystal
_audit_creation_method	'EQeq! by Chris Wilmer'
_symmetry_space_group_name_H-M	'P1'
_symmetry_Int_Tables_number	1
_symmetry_cell_setting	triclinic
loop_
_symmetry_equiv_pos_as_xyz
  x,y,z
_cell_length_a	46.15
_cell_length_b	46.15
_cell_length_c	46.15
_cell_angle_alpha	90
_cell_angle_beta	90
_cell_angle_gamma	90
loop_
_atom_site_label
_atom_site_type_symbol
_atom_site_fract_x
_atom_site_fract_y
_atom_site_fract_z
_atom_site_charge
Mof_O 	O 	0.97008	0.10459	0.14617	-0.395
Mof_C 	C 	0.95922	0.11553	0.16932	0.381
Mof_C 	C 	0.93723	0.10069	0.18362	-0.155
Mof_C 	C 	0.9264	0.1106	0.2118	0.075
Mof_C 	C 	0.0139	0.2434	0.2136	-0.019
Mof_C 	C 	0.0231	0.2133	0.2001	0.023
Mof_O 	O 	0.96974	0.13868	0.18039	-0.384
Mof_C 	C 	0.0086	0.2234	0.191	0.021
Mof_O 	O 	0.97008	0.60459	0.64617	-0.395
Mof_C 	C 	0.95922	0.61553	0.66932	0.381
Mof_C 	C 	0.93723	0.60069	0.68362	-0.155
Mof_C 	C 	0.9264	0.6106	0.7118	0.075
Mof_C 	C 	0.0139	0.7434	0.7136	-0.019
Mof_C 	C 	0.0231	0.7133	0.7001	0.023
Mof_O 	O 	0.96974	0.63868	0.68039	-0.384
Mof_C 	C 	0.0086	0.7234	0.691	0.021
Mof_O 	O 	0.47008	0.10459	0.64617	-0.396
Mof_C 	C 	0.45922	0.11553	0.66932	0.381
Mof_C 	C 	0.43723	0.10069	0.68362	-0.155
Mof_C 	C 	0.4264	0.1106	0.7118	0.075
Mof_C 	C 	0.5139	0.2434	0.7136	-0.002
Mof_C 	C 	0.5231	0.2133	0.7001	0.024
Mof_O 	O 	0.46974	0.13868	0.68039	-0.385
Mof_C 	C 	0.5086	0.2234	0.691	0.022
Mof_O 	O 	0.47008	0.60459	0.14617	-0.396
Mof_C 	C 	0.45922	0.61553	0.16932	0.381
Mof_C 	C 	0.43723	0.60069	0.18362	-0.155
Mof_C 	C 	0.4264	0.6106	0.2118	0.075
Mof_C 	C 	0.5139	0.7434	0.2136	-0.002
Mof_C 	C 	0.5231	0.7133	0.2001	0.024
Mof_O 	O 	0.46974	0.63868	0.18039	-0.385
Mof_C 	C 	0.5086	0.7234	0.191	0.022
Mof_O 	O 	0.02992	0.89541	0.14617	-0.397
Mof_C 	C 	0.04078	0.88447	0.16932	0.381
Mof_C 	C 	0.06277	0.89931	0.18362	-0.155
Mof_C 	C 	0.0736	0.8894	0.2118	0.075
Mof_C 	C 	0.9861	0.7566	0.2136	0.017
Mof_C 	C 	0.9769	0.7867	0.2001	0.025
Mof_O 	O 	0.03026	0.86132	0.18039	-0.386
Mof_C 	C 	0.9914	0.7766	0.191	0.023
Mof_O 	O 	0.02992	0.39541	0.64617	-0.397
Mof_C 	C 	0.04078	0.38447	0.66932	0.381
Mof_C 	C 	0.06277	0.39931	0.68362	-0.155
Mof_C 	C 	0.0736	0.3894	0.7118	0.074
Mof_C 	C 	0.9861	0.2566	0.7136	0.017
Mof_C 	C 	0.9769	0.2867	0.7001	0.025
Mof_O 	O 	0.03026	0.36132	0.68039	-0.386
Mof_C 	C 	0.9914	0.2766	0.691	0.023
Mof_O 	O 	0.52992	0.89541	0.64617	-0.396
Mof_C 	C 	0.54078	0.88447	0.66932	0.381
Mof_C 	C 	0.56277	0.89931	0.68362	-0.155
Mof_C 	C 	0.5736	0.8894	0.7118	0.075
Mof_C 	C 	0.4861	0.7566	0.7136	-0.002
Mof_C 	C 	0.4769	0.7867	0.7001	0.024
Mof_O 	O 	0.53026	0.86132	0.68039	-0.385
Mof_C 	C 	0.4914	0.7766	0.691	0.022
Mof_O 	O 	0.52992	0.39541	0.14617	-0.396
Mof_C 	C 	0.54078	0.38447	0.16932	0.381
Mof_C 	C 	0.56277	0.39931	0.18362	-0.155
Mof_C 	C 	0.5736	0.3894	0.2118	0.075
Mof_C 	C 	0.4861	0.2566	0.2136	-0.002
Mof_C 	C 	0.4769	0.2867	0.2001	0.024
Mof_O 	O 	0.53026	0.36132	0.18039	-0.385
Mof_C 	C 	0.4914	0.2766	0.191	0.022
Mof_O 	O 	0.02992	0.10459	0.85383	-0.397
Mof_C 	C 	0.04078	0.11553	0.83068	0.381
Mof_C 	C 	0.06277	0.10069	0.81638	-0.155
Mof_C 	C 	0.0736	0.1106	0.7882	0.074
Mof_C 	C 	0.9861	0.2434	0.7864	0.017
Mof_C 	C 	0.9769	0.2133	0.7999	0.025
Mof_O 	O 	0.03026	0.13868	0.81961	-0.386
Mof_C 	C 	0.9914	0.2234	0.809	0.023
Mof_O 	O 	0.02992	0.60459	0.35383	-0.397
Mof_C 	C 	0.04078	0.61553	0.33068	0.381
Mof_C 	C 	0.06277	0.60069	0.31638	-0.155
Mof_C 	C 	0.0736	0.6106	0.2882	0.074
Mof_C 	C 	0.9861	0.7434	0.2864	0.017
Mof_C 	C 	0.9769	0.7133	0.2999	0.025
Mof_O 	O 	0.03026	0.63868	0.31961	-0.386
Mof_C 	C 	0.9914	0.7234	0.309	0.023
Mof_O 	O 	0.52992	0.10459	0.35383	-0.396
Mof_C 	C 	0.54078	0.11553	0.33068	0.381
Mof_C 	C 	0.56277	0.10069	0.31638	-0.155
Mof_C 	C 	0.5736	0.1106	0.2882	0.075
Mof_C 	C 	0.4861	0.2434	0.2864	-0.002
Mof_C 	C 	0.4769	0.2133	0.2999	0.024
Mof_O 	O 	0.53026	0.13868	0.31961	-0.385
Mof_C 	C 	0.4914	0.2234	0.309	0.022
Mof_O 	O 	0.52992	0.60459	0.85383	-0.396
Mof_C 	C 	0.54078	0.61553	0.83068	0.381
Mof_C 	C 	0.56277	0.60069	0.81638	-0.155
Mof_C 	C 	0.5736	0.6106	0.7882	0.075
Mof_C 	C 	0.4861	0.7434	0.7864	-0.002
Mof_C 	C 	0.4769	0.7133	0.7999	0.024
Mof_O 	O 	0.53026	0.63868	0.81961	-0.385
Mof_C 	C 	0.4914	0.7234	0.809	0.022
Mof_O 	O 	0.97008	0.89541	0.85383	-0.395
Mof_C 	C 	0.95922	0.88447	0.83068	0.381
Mof_C 	C 	0.93723	0.89931	0.81638	-0.155
Mof_C 	C 	0.9264	0.8894	0.7882	0.075
Mof_C 	C 	0.0139	0.7566	0.7864	-0.019
Mof_C 	C 	0.0231	0.7867	0.7999	0.023
Mof_O 	O 	0.96974	0.86132	0.81961	-0.384
Mof_C 	C 	0.0086	0.7766	0.809	0.021
Mof_O 	O 	0.97008	0.39541	0.35383	-0.395
Mof_C 	C 	0.95922	0.38447	0.33068	0.381
Mof_C 	C 	0.93723	0.39931	0.31638	-0.155
Mof_C 	C 	0.9264	0.3894	0.2882	0.075
Mof_C 	C 	0.0139	0.2566	0.2864	-0.019
Mof_C 	C 	0.0231	0.2867	0.2999	0.023
Mof_O 	O 	0.96974	0.36132	0.31961	-0.384
Mof_C 	C 	0.0086	0.2766	0.309	0.021
Mof_O 	O 	0.47008	0.89541	0.35383	-0.396
Mof_C 	C 	0.45922	0.88447	0.33068	0.381
Mof_C 	C 	0.43723	0.89931	0.31638	-0.155
Mof_C 	C 	0.4264	0.8894	0.2882	0.075
Mof_C 	C 	0.5139	0.7566	0.2864	-0.002
Mof_C 	C 	0.5231	0.7867	0.2999	0.024
Mof_O 	O 	0.46974	0.86132	0.31961	-0.385
Mof_C 	C 	0.5086	0.7766	0.309	0.022
Mof_O 	O 	0.47008	0.39541	0.85383	-0.396
Mof_C 	C 	0.45922	0.38447	0.83068	0.381
Mof_C 	C 	0.43723	0.39931	0.81638	-0.155
Mof_C 	C 	0.4264	0.3894	0.7882	0.075
Mof_C 	C 	0.5139	0.2566	0.7864	-0.002
Mof_C 	C 	0.5231	0.2867	0.7999	0.024
Mof_O 	O 	0.46974	0.36132	0.81961	-0.385
Mof_C 	C 	0.5086	0.2766	0.809	0.022
Mof_O 	O 	0.14617	0.97008	0.10459	-0.395
Mof_C 	C 	0.16932	0.95922	0.11553	0.381
Mof_C 	C 	0.18362	0.93723	0.10069	-0.155
Mof_C 	C 	0.2118	0.9264	0.1106	0.075
Mof_C 	C 	0.2136	0.0139	0.2434	-0.019
Mof_C 	C 	0.2001	0.0231	0.2133	0.023
Mof_O 	O 	0.18039	0.96974	0.13868	-0.384
Mof_C 	C 	0.191	0.0086	0.2234	0.021
Mof_O 	O 	0.14617	0.47008	0.60459	-0.396
Mof_C 	C 	0.16932	0.45922	0.61553	0.381
Mof_C 	C 	0.18362	0.43723	0.60069	-0.155
Mof_C 	C 	0.2118	0.4264	0.6106	0.075
Mof_C 	C 	0.2136	0.5139	0.7434	-0.002
Mof_C 	C 	0.2001	0.5231	0.7133	0.024
Mof_O 	O 	0.18039	0.46974	0.63868	-0.385
Mof_C 	C 	0.191	0.5086	0.7234	0.022
Mof_O 	O 	0.64617	0.97008	0.60459	-0.395
Mof_C 	C 	0.66932	0.95922	0.61553	0.381
Mof_C 	C 	0.68362	0.93723	0.60069	-0.155
Mof_C 	C 	0.7118	0.9264	0.6106	0.075
Mof_C 	C 	0.7136	0.0139	0.7434	-0.019
Mof_C 	C 	0.7001	0.0231	0.7133	0.023
Mof_O 	O 	0.68039	0.96974	0.63868	-0.384
Mof_C 	C 	0.691	0.0086	0.7234	0.021
Mof_O 	O 	0.64617	0.47008	0.10459	-0.396
Mof_C 	C 	0.66932	0.45922	0.11553	0.381
Mof_C 	C 	0.68362	0.43723	0.10069	-0.155
Mof_C 	C 	0.7118	0.4264	0.1106	0.075
Mof_C 	C 	0.7136	0.5139	0.2434	-0.002
Mof_C 	C 	0.7001	0.5231	0.2133	0.024
Mof_O 	O 	0.68039	0.46974	0.13868	-0.385
Mof_C 	C 	0.691	0.5086	0.2234	0.022
Mof_O 	O 	0.14617	0.02992	0.89541	-0.397
Mof_C 	C 	0.16932	0.04078	0.88447	0.381
Mof_C 	C 	0.18362	0.06277	0.89931	-0.155
Mof_C 	C 	0.2118	0.0736	0.8894	0.075
Mof_C 	C 	0.2136	0.9861	0.7566	0.017
Mof_C 	C 	0.2001	0.9769	0.7867	0.025
Mof_O 	O 	0.18039	0.03026	0.86132	-0.386
Mof_C 	C 	0.191	0.9914	0.7766	0.023
Mof_O 	O 	0.14617	0.52992	0.39541	-0.396
Mof_C 	C 	0.16932	0.54078	0.38447	0.381
Mof_C 	C 	0.18362	0.56277	0.39931	-0.155
Mof_C 	C 	0.2118	0.5736	0.3894	0.075
Mof_C 	C 	0.2136	0.4861	0.2566	-0.002
Mof_C 	C 	0.2001	0.4769	0.2867	0.024
Mof_O 	O 	0.18039	0.53026	0.36132	-0.385
Mof_C 	C 	0.191	0.4914	0.2766	0.022
Mof_O 	O 	0.64617	0.02992	0.39541	-0.397
Mof_C 	C 	0.66932	0.04078	0.38447	0.381
Mof_C 	C 	0.68362	0.06277	0.39931	-0.155
Mof_C 	C 	0.7118	0.0736	0.3894	0.074
Mof_C 	C 	0.7136	0.9861	0.2566	0.017
Mof_C 	C 	0.7001	0.9769	0.2867	0.025
Mof_O 	O 	0.68039	0.03026	0.36132	-0.386
Mof_C 	C 	0.691	0.9914	0.2766	0.023
Mof_O 	O 	0.64617	0.52992	0.89541	-0.396
Mof_C 	C 	0.66932	0.54078	0.88447	0.381
Mof_C 	C 	0.68362	0.56277	0.89931	-0.155
Mof_C 	C 	0.7118	0.5736	0.8894	0.075
Mof_C 	C 	0.7136	0.4861	0.7566	-0.002
Mof_C 	C 	0.7001	0.4769	0.7867	0.024
Mof_O 	O 	0.68039	0.53026	0.86132	-0.385
Mof_C 	C 	0.691	0.4914	0.7766	0.022
Mof_O 	O 	0.85383	0.02992	0.10459	-0.397
Mof_C 	C 	0.83068	0.04078	0.11553	0.381
Mof_C 	C 	0.81638	0.06277	0.10069	-0.155
Mof_C 	C 	0.7882	0.0736	0.1106	0.074
Mof_C 	C 	0.7864	0.9861	0.2434	0.017
Mof_C 	C 	0.7999	0.9769	0.2133	0.025
Mof_O 	O 	0.81961	0.03026	0.13868	-0.386
Mof_C 	C 	0.809	0.9914	0.2234	0.023
Mof_O 	O 	0.85383	0.52992	0.60459	-0.396
Mof_C 	C 	0.83068	0.54078	0.61553	0.381
Mof_C 	C 	0.81638	0.56277	0.60069	-0.155
Mof_C 	C 	0.7882	0.5736	0.6106	0.075
Mof_C 	C 	0.7864	0.4861	0.7434	-0.002
Mof_C 	C 	0.7999	0.4769	0.7133	0.024
Mof_O 	O 	0.81961	0.53026	0.63868	-0.385
Mof_C 	C 	0.809	0.4914	0.7234	0.022
Mof_O 	O 	0.35383	0.02992	0.60459	-0.397
Mof_C 	C 	0.33068	0.04078	0.61553	0.381
Mof_C 	C 	0.31638	0.06277	0.60069	-0.155
Mof_C 	C 	0.2882	0.0736	0.6106	0.074
Mof_C 	C 	0.2864	0.9861	0.7434	0.017
Mof_C 	C 	0.2999	0.9769	0.7133	0.025
Mof_O 	O 	0.31961	0.03026	0.63868	-0.386
Mof_C 	C 	0.309	0.9914	0.7234	0.023
Mof_O 	O 	0.35383	0.52992	0.10459	-0.396
Mof_C 	C 	0.33068	0.54078	0.11553	0.381
Mof_C 	C 	0.31638	0.56277	0.10069	-0.155
Mof_C 	C 	0.2882	0.5736	0.1106	0.075
Mof_C 	C 	0.2864	0.4861	0.2434	-0.002
Mof_C 	C 	0.2999	0.4769	0.2133	0.024
Mof_O 	O 	0.31961	0.53026	0.13868	-0.385
Mof_C 	C 	0.309	0.4914	0.2234	0.022
Mof_O 	O 	0.85383	0.97008	0.89541	-0.395
Mof_C 	C 	0.83068	0.95922	0.88447	0.381
Mof_C 	C 	0.81638	0.93723	0.89931	-0.155
Mof_C 	C 	0.7882	0.9264	0.8894	0.075
Mof_C 	C 	0.7864	0.0139	0.7566	-0.019
Mof_C 	C 	0.7999	0.0231	0.7867	0.023
Mof_O 	O 	0.81961	0.96974	0.86132	-0.384
Mof_C 	C 	0.809	0.0086	0.7766	0.021
Mof_O 	O 	0.85383	0.47008	0.39541	-0.396
Mof_C 	C 	0.83068	0.45922	0.38447	0.381
Mof_C 	C 	0.81638	0.43723	0.39931	-0.155
Mof_C 	C 	0.7882	0.4264	0.3894	0.075
Mof_C 	C 	0.7864	0.5139	0.2566	-0.002
Mof_C 	C 	0.7999	0.5231	0.2867	0.024
Mof_O 	O 	0.81961	0.46974	0.36132	-0.385
Mof_C 	C 	0.809	0.5086	0.2766	0.022
Mof_O 	O 	0.35383	0.97008	0.39541	-0.395
Mof_C 	C 	0.33068	0.95922	0.38447	0.381
Mof_C 	C 	0.31638	0.93723	0.39931	-0.155
Mof_C 	C 	0.2882	0.9264	0.3894	0.075
Mof_C 	C 	0.2864	0.0139	0.2566	-0.019
Mof_C 	C 	0.2999	0.0231	0.2867	0.023
Mof_O 	O 	0.31961	0.96974	0.36132	-0.384
Mof_C 	C 	0.309	0.0086	0.2766	0.021
Mof_O 	O 	0.35383	0.47008	0.89541	-0.396
Mof_C 	C 	0.33068	0.45922	0.88447	0.381
Mof_C 	C 	0.31638	0.43723	0.89931	-0.155
Mof_C 	C 	0.2882	0.4264	0.8894	0.075
Mof_C 	C 	0.2864	0.5139	0.7566	-0.002
Mof_C 	C 	0.2999	0.5231	0.7867	0.024
Mof_O 	O 	0.31961	0.46974	0.86132	-0.385
Mof_C 	C 	0.309	0.5086	0.7766	0.022
Mof_O 	O 	0.10459	0.14617	0.97008	-0.395
Mof_C 	C 	0.11553	0.16932	0.95922	0.381
Mof_C 	C 	0.10069	0.18362	0.93723	-0.155
Mof_C 	C 	0.1106	0.2118	0.9264	0.075
Mof_C 	C 	0.2434	0.2136	0.0139	-0.019
Mof_C 	C 	0.2133	0.2001	0.0231	0.023
Mof_O 	O 	0.13868	0.18039	0.96974	-0.384
Mof_C 	C 	0.2234	0.191	0.0086	0.021
Mof_O 	O 	0.10459	0.64617	0.47008	-0.396
Mof_C 	C 	0.11553	0.66932	0.45922	0.381
Mof_C 	C 	0.10069	0.68362	0.43723	-0.155
Mof_C 	C 	0.1106	0.7118	0.4264	0.075
Mof_C 	C 	0.2434	0.7136	0.5139	-0.002
Mof_C 	C 	0.2133	0.7001	0.5231	0.024
Mof_O 	O 	0.13868	0.68039	0.46974	-0.385
Mof_C 	C 	0.2234	0.691	0.5086	0.022
Mof_O 	O 	0.60459	0.14617	0.47008	-0.396
Mof_C 	C 	0.61553	0.16932	0.45922	0.381
Mof_C 	C 	0.60069	0.18362	0.43723	-0.155
Mof_C 	C 	0.6106	0.2118	0.4264	0.075
Mof_C 	C 	0.7434	0.2136	0.5139	-0.002
Mof_C 	C 	0.7133	0.2001	0.5231	0.024
Mof_O 	O 	0.63868	0.18039	0.46974	-0.385
Mof_C 	C 	0.7234	0.191	0.5086	0.022
Mof_O 	O 	0.60459	0.64617	0.97008	-0.395
Mof_C 	C 	0.61553	0.66932	0.95922	0.381
Mof_C 	C 	0.60069	0.68362	0.93723	-0.155
Mof_C 	C 	0.6106	0.7118	0.9264	0.075
Mof_C 	C 	0.7434	0.7136	0.0139	-0.019
Mof_C 	C 	0.7133	0.7001	0.0231	0.023
Mof_O 	O 	0.63868	0.68039	0.96974	-0.384
Mof_C 	C 	0.7234	0.691	0.0086	0.021
Mof_O 	O 	0.89541	0.14617	0.02992	-0.397
Mof_C 	C 	0.88447	0.16932	0.04078	0.381
Mof_C 	C 	0.89931	0.18362	0.06277	-0.155
Mof_C 	C 	0.8894	0.2118	0.0736	0.075
Mof_C 	C 	0.7566	0.2136	0.9861	0.017
Mof_C 	C 	0.7867	0.2001	0.9769	0.025
Mof_O 	O 	0.86132	0.18039	0.03026	-0.386
Mof_C 	C 	0.7766	0.191	0.9914	0.023
Mof_O 	O 	0.89541	0.64617	0.52992	-0.396
Mof_C 	C 	0.88447	0.66932	0.54078	0.381
Mof_C 	C 	0.89931	0.68362	0.56277	-0.155
Mof_C 	C 	0.8894	0.7118	0.5736	0.075
Mof_C 	C 	0.7566	0.7136	0.4861	-0.002
Mof_C 	C 	0.7867	0.7001	0.4769	0.024
Mof_O 	O 	0.86132	0.68039	0.53026	-0.385
Mof_C 	C 	0.7766	0.691	0.4914	0.022
Mof_O 	O 	0.39541	0.14617	0.52992	-0.396
Mof_C 	C 	0.38447	0.16932	0.54078	0.381
Mof_C 	C 	0.39931	0.18362	0.56277	-0.155
Mof_C 	C 	0.3894	0.2118	0.5736	0.075
Mof_C 	C 	0.2566	0.2136	0.4861	-0.002
Mof_C 	C 	0.2867	0.2001	0.4769	0.024
Mof_O 	O 	0.36132	0.18039	0.53026	-0.385
Mof_C 	C 	0.2766	0.191	0.4914	0.022
Mof_O 	O 	0.39541	0.64617	0.02992	-0.397
Mof_C 	C 	0.38447	0.66932	0.04078	0.381
Mof_C 	C 	0.39931	0.68362	0.06277	-0.155
Mof_C 	C 	0.3894	0.7118	0.0736	0.074
Mof_C 	C 	0.2566	0.7136	0.9861	0.017
Mof_C 	C 	0.2867	0.7001	0.9769	0.025
Mof_O 	O 	0.36132	0.68039	0.03026	-0.386
Mof_C 	C 	0.2766	0.691	0.9914	0.023
Mof_O 	O 	0.10459	0.85383	0.02992	-0.397
Mof_C 	C 	0.11553	0.83068	0.04078	0.381
Mof_C 	C 	0.10069	0.81638	0.06277	-0.155
Mof_C 	C 	0.1106	0.7882	0.0736	0.074
Mof_C 	C 	0.2434	0.7864	0.9861	0.017
Mof_C 	C 	0.2133	0.7999	0.9769	0.025
Mof_O 	O 	0.13868	0.81961	0.03026	-0.386
Mof_C 	C 	0.2234	0.809	0.9914	0.023
Mof_O 	O 	0.10459	0.35383	0.52992	-0.396
Mof_C 	C 	0.11553	0.33068	0.54078	0.381
Mof_C 	C 	0.10069	0.31638	0.56277	-0.155
Mof_C 	C 	0.1106	0.2882	0.5736	0.075
Mof_C 	C 	0.2434	0.2864	0.4861	-0.002
Mof_C 	C 	0.2133	0.2999	0.4769	0.024
Mof_O 	O 	0.13868	0.31961	0.53026	-0.385
Mof_C 	C 	0.2234	0.309	0.4914	0.022
Mof_O 	O 	0.60459	0.85383	0.52992	-0.396
Mof_C 	C 	0.61553	0.83068	0.54078	0.381
Mof_C 	C 	0.60069	0.81638	0.56277	-0.155
Mof_C 	C 	0.6106	0.7882	0.5736	0.075
Mof_C 	C 	0.7434	0.7864	0.4861	-0.002
Mof_C 	C 	0.7133	0.7999	0.4769	0.024
Mof_O 	O 	0.63868	0.81961	0.53026	-0.385
Mof_C 	C 	0.7234	0.809	0.4914	0.022
Mof_O 	O 	0.60459	0.35383	0.02992	-0.397
Mof_C 	C 	0.61553	0.33068	0.04078	0.381
Mof_C 	C 	0.60069	0.31638	0.06277	-0.155
Mof_C 	C 	0.6106	0.2882	0.0736	0.074
Mof_C 	C 	0.7434	0.2864	0.9861	0.017
Mof_C 	C 	0.7133	0.2999	0.9769	0.025
Mof_O 	O 	0.63868	0.31961	0.03026	-0.386
Mof_C 	C 	0.7234	0.309	0.9914	0.023
Mof_O 	O 	0.89541	0.85383	0.97008	-0.395
Mof_C 	C 	0.88447	0.83068	0.95922	0.381
Mof_C 	C 	0.89931	0.81638	0.93723	-0.155
Mof_C 	C 	0.8894	0.7882	0.9264	0.075
Mof_C 	C 	0.7566	0.7864	0.0139	-0.019
Mof_C 	C 	0.7867	0.7999	0.0231	0.023
Mof_O 	O 	0.86132	0.81961	0.96974	-0.384
Mof_C 	C 	0.7766	0.809	0.0086	0.021
Mof_O 	O 	0.89541	0.35383	0.47008	-0.396
Mof_C 	C 	0.88447	0.33068	0.45922	0.381
Mof_C 	C 	0.89931	0.31638	0.43723	-0.155
Mof_C 	C 	0.8894	0.2882	0.4264	0.075
Mof_C 	C 	0.7566	0.2864	0.5139	-0.002
Mof_C 	C 	0.7867	0.2999	0.5231	0.024
Mof_O 	O 	0.86132	0.31961	0.46974	-0.385
Mof_C 	C 	0.7766	0.309	0.5086	0.022
Mof_O 	O 	0.39541	0.85383	0.47008	-0.396
Mof_C 	C 	0.38447	0.83068	0.45922	0.381
Mof_C 	C 	0.39931	0.81638	0.43723	-0.155
Mof_C 	C 	0.3894	0.7882	0.4264	0.075
Mof_C 	C 	0.2566	0.7864	0.5139	-0.002
Mof_C 	C 	0.2867	0.7999	0.5231	0.024
Mof_O 	O 	0.36132	0.81961	0.46974	-0.385
Mof_C 	C 	0.2766	0.809	0.5086	0.022
Mof_O 	O 	0.39541	0.35383	0.97008	-0.395
Mof_C 	C 	0.38447	0.33068	0.95922	0.381
Mof_C 	C 	0.39931	0.31638	0.93723	-0.155
Mof_C 	C 	0.3894	0.2882	0.9264	0.075
Mof_C 	C 	0.2566	0.2864	0.0139	-0.019
Mof_C 	C 	0.2867	0.2999	0.0231	0.023
Mof_O 	O 	0.36132	0.31961	0.96974	-0.384
Mof_C 	C 	0.2766	0.309	0.0086	0.021
Mof_O 	O 	0.10459	0.97008	0.85383	-0.395
Mof_C 	C 	0.11553	0.95922	0.83068	0.381
Mof_C 	C 	0.10069	0.93723	0.81638	-0.155
Mof_C 	C 	0.1106	0.9264	0.7882	0.075
Mof_C 	C 	0.2434	0.0139	0.7864	-0.019
Mof_C 	C 	0.2133	0.0231	0.7999	0.023
Mof_O 	O 	0.13868	0.96974	0.81961	-0.384
Mof_C 	C 	0.2234	0.0086	0.809	0.021
Mof_O 	O 	0.10459	0.47008	0.35383	-0.396
Mof_C 	C 	0.11553	0.45922	0.33068	0.381
Mof_C 	C 	0.10069	0.43723	0.31638	-0.155
Mof_C 	C 	0.1106	0.4264	0.2882	0.075
Mof_C 	C 	0.2434	0.5139	0.2864	-0.002
Mof_C 	C 	0.2133	0.5231	0.2999	0.024
Mof_O 	O 	0.13868	0.46974	0.31961	-0.385
Mof_C 	C 	0.2234	0.5086	0.309	0.022
Mof_O 	O 	0.60459	0.97008	0.35383	-0.395
Mof_C 	C 	0.61553	0.95922	0.33068	0.381
Mof_C 	C 	0.60069	0.93723	0.31638	-0.155
Mof_C 	C 	0.6106	0.9264	0.2882	0.075
Mof_C 	C 	0.7434	0.0139	0.2864	-0.019
Mof_C 	C 	0.7133	0.0231	0.2999	0.023
Mof_O 	O 	0.63868	0.96974	0.31961	-0.384
Mof_C 	C 	0.7234	0.0086	0.309	0.021
Mof_O 	O 	0.60459	0.47008	0.85383	-0.396
Mof_C 	C 	0.61553	0.45922	0.83068	0.381
Mof_C 	C 	0.60069	0.43723	0.81638	-0.155
Mof_C 	C 	0.6106	0.4264	0.7882	0.075
Mof_C 	C 	0.7434	0.5139	0.7864	-0.002
Mof_C 	C 	0.7133	0.5231	0.7999	0.024
Mof_O 	O 	0.63868	0.46974	0.81961	-0.385
Mof_C 	C 	0.7234	0.5086	0.809	0.022
Mof_O 	O 	0.89541	0.02992	0.85383	-0.397
Mof_C 	C 	0.88447	0.04078	0.83068	0.381
Mof_C 	C 	0.89931	0.06277	0.81638	-0.155
Mof_C 	C 	0.8894	0.0736	0.7882	0.075
Mof_C 	C 	0.7566	0.9861	0.7864	0.017
Mof_C 	C 	0.7867	0.9769	0.7999	0.025
Mof_O 	O 	0.86132	0.03026	0.81961	-0.386
Mof_C 	C 	0.7766	0.9914	0.809	0.023
Mof_O 	O 	0.89541	0.52992	0.35383	-0.396
Mof_C 	C 	0.88447	0.54078	0.33068	0.381
Mof_C 	C 	0.89931	0.56277	0.31638	-0.155
Mof_C 	C 	0.8894	0.5736	0.2882	0.075
Mof_C 	C 	0.7566	0.4861	0.2864	-0.002
Mof_C 	C 	0.7867	0.4769	0.2999	0.024
Mof_O 	O 	0.86132	0.53026	0.31961	-0.385
Mof_C 	C 	0.7766	0.4914	0.309	0.022
Mof_O 	O 	0.39541	0.02992	0.35383	-0.397
Mof_C 	C 	0.38447	0.04078	0.33068	0.381
Mof_C 	C 	0.39931	0.06277	0.31638	-0.155
Mof_C 	C 	0.3894	0.0736	0.2882	0.074
Mof_C 	C 	0.2566	0.9861	0.2864	0.017
Mof_C 	C 	0.2867	0.9769	0.2999	0.025
Mof_O 	O 	0.36132	0.03026	0.31961	-0.386
Mof_C 	C 	0.2766	0.9914	0.309	0.023
Mof_O 	O 	0.39541	0.52992	0.85383	-0.396
Mof_C 	C 	0.38447	0.54078	0.83068	0.381
Mof_C 	C 	0.39931	0.56277	0.81638	-0.155
Mof_C 	C 	0.3894	0.5736	0.7882	0.075
Mof_C 	C 	0.2566	0.4861	0.7864	-0.002
Mof_C 	C 	0.2867	0.4769	0.7999	0.024
Mof_O 	O 	0.36132	0.53026	0.81961	-0.385
Mof_C 	C 	0.2766	0.4914	0.809	0.022
Mof_O 	O 	0.10459	0.02992	0.14617	-0.397
Mof_C 	C 	0.11553	0.04078	0.16932	0.381
Mof_C 	C 	0.10069	0.06277	0.18362	-0.155
Mof_C 	C 	0.1106	0.0736	0.2118	0.074
Mof_C 	C 	0.2434	0.9861	0.2136	0.017
Mof_C 	C 	0.2133	0.9769	0.2001	0.025
Mof_O 	O 	0.13868	0.03026	0.18039	-0.386
Mof_C 	C 	0.2234	0.9914	0.191	0.023
Mof_O 	O 	0.10459	0.52992	0.64617	-0.396
Mof_C 	C 	0.11553	0.54078	0.66932	0.381
Mof_C 	C 	0.10069	0.56277	0.68362	-0.155
Mof_C 	C 	0.1106	0.5736	0.7118	0.075
Mof_C 	C 	0.2434	0.4861	0.7136	-0.002
Mof_C 	C 	0.2133	0.4769	0.7001	0.024
Mof_O 	O 	0.13868	0.53026	0.68039	-0.385
Mof_C 	C 	0.2234	0.4914	0.691	0.022
Mof_O 	O 	0.60459	0.02992	0.64617	-0.397
Mof_C 	C 	0.61553	0.04078	0.66932	0.381
Mof_C 	C 	0.60069	0.06277	0.68362	-0.155
Mof_C 	C 	0.6106	0.0736	0.7118	0.074
Mof_C 	C 	0.7434	0.9861	0.7136	0.017
Mof_C 	C 	0.7133	0.9769	0.7001	0.025
Mof_O 	O 	0.63868	0.03026	0.68039	-0.386
Mof_C 	C 	0.7234	0.9914	0.691	0.023
Mof_O 	O 	0.60459	0.52992	0.14617	-0.396
Mof_C 	C 	0.61553	0.54078	0.16932	0.381
Mof_C 	C 	0.60069	0.56277	0.18362	-0.155
Mof_C 	C 	0.6106	0.5736	0.2118	0.075
Mof_C 	C 	0.7434	0.4861	0.2136	-0.002
Mof_C 	C 	0.7133	0.4769	0.2001	0.024
Mof_O 	O 	0.63868	0.53026	0.18039	-0.385
Mof_C 	C 	0.7234	0.4914	0.191	0.022
Mof_O 	O 	0.89541	0.97008	0.14617	-0.395
Mof_C 	C 	0.88447	0.95922	0.16932	0.381
Mof_C 	C 	0.89931	0.93723	0.18362	-0.155
Mof_C 	C 	0.8894	0.9264	0.2118	0.075
Mof_C 	C 	0.7566	0.0139	0.2136	-0.019
Mof_C 	C 	0.7867	0.0231	0.2001	0.023
Mof_O 	O 	0.86132	0.96974	0.18039	-0.384
Mof_C 	C 	0.7766	0.0086	0.191	0.021
Mof_O 	O 	0.89541	0.47008	0.64617	-0.396
Mof_C 	C 	0.88447	0.45922	0.66932	0.381
Mof_C 	C 	0.89931	0.43723	0.68362	-0.155
Mof_C 	C 	0.8894	0.4264	0.7118	0.075
Mof_C 	C 	0.7566	0.5139	0.7136	-0.002
Mof_C 	C 	0.7867	0.5231	0.7001	0.024
Mof_O 	O 	0.86132	0.46974	0.68039	-0.385
Mof_C 	C 	0.7766	0.5086	0.691	0.022
Mof_O 	O 	0.39541	0.97008	0.64617	-0.395
Mof_C 	C 	0.38447	0.95922	0.66932	0.381
Mof_C 	C 	0.39931	0.93723	0.68362	-0.155
Mof_C 	C 	0.3894	0.9264	0.7118	0.075
Mof_C 	C 	0.2566	0.0139	0.7136	-0.019
Mof_C 	C 	0.2867	0.0231	0.7001	0.023
Mof_O 	O 	0.36132	0.96974	0.68039	-0.384
Mof_C 	C 	0.2766	0.0086	0.691	0.021
Mof_O 	O 	0.39541	0.47008	0.14617	-0.396
Mof_C 	C 	0.38447	0.45922	0.16932	0.381
Mof_C 	C 	0.39931	0.43723	0.18362	-0.155
Mof_C 	C 	0.3894	0.4264	0.2118	0.075
Mof_C 	C 	0.2566	0.5139	0.2136	-0.002
Mof_C 	C 	0.2867	0.5231	0.2001	0.024
Mof_O 	O 	0.36132	0.46974	0.18039	-0.385
Mof_C 	C 	0.2766	0.5086	0.191	0.022
Mof_O 	O 	0.97008	0.14617	0.89541	-0.395
Mof_C 	C 	0.95922	0.16932	0.88447	0.381
Mof_C 	C 	0.93723	0.18362	0.89931	-0.155
Mof_C 	C 	0.9264	0.2118	0.8894	0.075
Mof_C 	C 	0.0139	0.2136	0.7566	-0.019
Mof_C 	C 	0.0231	0.2001	0.7867	0.023
Mof_O 	O 	0.96974	0.18039	0.86132	-0.384
Mof_C 	C 	0.0086	0.191	0.7766	0.021
Mof_O 	O 	0.97008	0.64617	0.39541	-0.395
Mof_C 	C 	0.95922	0.66932	0.38447	0.381
Mof_C 	C 	0.93723	0.68362	0.39931	-0.155
Mof_C 	C 	0.9264	0.7118	0.3894	0.075
Mof_C 	C 	0.0139	0.7136	0.2566	-0.019
Mof_C 	C 	0.0231	0.7001	0.2867	0.023
Mof_O 	O 	0.96974	0.68039	0.36132	-0.384
Mof_C 	C 	0.0086	0.691	0.2766	0.021
Mof_O 	O 	0.47008	0.14617	0.39541	-0.396
Mof_C 	C 	0.45922	0.16932	0.38447	0.381
Mof_C 	C 	0.43723	0.18362	0.39931	-0.155
Mof_C 	C 	0.4264	0.2118	0.3894	0.075
Mof_C 	C 	0.5139	0.2136	0.2566	-0.002
Mof_C 	C 	0.5231	0.2001	0.2867	0.024
Mof_O 	O 	0.46974	0.18039	0.36132	-0.385
Mof_C 	C 	0.5086	0.191	0.2766	0.022
Mof_O 	O 	0.47008	0.64617	0.89541	-0.396
Mof_C 	C 	0.45922	0.66932	0.88447	0.381
Mof_C 	C 	0.43723	0.68362	0.89931	-0.155
Mof_C 	C 	0.4264	0.7118	0.8894	0.075
Mof_C 	C 	0.5139	0.7136	0.7566	-0.002
Mof_C 	C 	0.5231	0.7001	0.7867	0.024
Mof_O 	O 	0.46974	0.68039	0.86132	-0.385
Mof_C 	C 	0.5086	0.691	0.7766	0.022
Mof_O 	O 	0.02992	0.14617	0.10459	-0.397
Mof_C 	C 	0.04078	0.16932	0.11553	0.381
Mof_C 	C 	0.06277	0.18362	0.10069	-0.155
Mof_C 	C 	0.0736	0.2118	0.1106	0.074
Mof_C 	C 	0.9861	0.2136	0.2434	0.017
Mof_C 	C 	0.9769	0.2001	0.2133	0.025
Mof_O 	O 	0.03026	0.18039	0.13868	-0.386
Mof_C 	C 	0.9914	0.191	0.2234	0.023
Mof_O 	O 	0.02992	0.64617	0.60459	-0.397
Mof_C 	C 	0.04078	0.66932	0.61553	0.381
Mof_C 	C 	0.06277	0.68362	0.60069	-0.155
Mof_C 	C 	0.0736	0.7118	0.6106	0.074
Mof_C 	C 	0.9861	0.7136	0.7434	0.017
Mof_C 	C 	0.9769	0.7001	0.7133	0.025
Mof_O 	O 	0.03026	0.68039	0.63868	-0.386
Mof_C 	C 	0.9914	0.691	0.7234	0.023
Mof_O 	O 	0.52992	0.14617	0.60459	-0.396
Mof_C 	C 	0.54078	0.16932	0.61553	0.381
Mof_C 	C 	0.56277	0.18362	0.60069	-0.155
Mof_C 	C 	0.5736	0.2118	0.6106	0.075
Mof_C 	C 	0.4861	0.2136	0.7434	-0.002
Mof_C 	C 	0.4769	0.2001	0.7133	0.024
Mof_O 	O 	0.53026	0.18039	0.63868	-0.385
Mof_C 	C 	0.4914	0.191	0.7234	0.022
Mof_O 	O 	0.52992	0.64617	0.10459	-0.396
Mof_C 	C 	0.54078	0.66932	0.11553	0.381
Mof_C 	C 	0.56277	0.68362	0.10069	-0.155
Mof_C 	C 	0.5736	0.7118	0.1106	0.075
Mof_C 	C 	0.4861	0.7136	0.2434	-0.002
Mof_C 	C 	0.4769	0.7001	0.2133	0.024
Mof_O 	O 	0.53026	0.68039	0.13868	-0.385
Mof_C 	C 	0.4914	0.691	0.2234	0.022
Mof_O 	O 	0.02992	0.85383	0.89541	-0.397
Mof_C 	C 	0.04078	0.83068	0.88447	0.381
Mof_C 	C 	0.06277	0.81638	0.89931	-0.155
Mof_C 	C 	0.0736	0.7882	0.8894	0.075
Mof_C 	C 	0.9861	0.7864	0.7566	0.017
Mof_C 	C 	0.9769	0.7999	0.7867	0.025
Mof_O 	O 	0.03026	0.81961	0.86132	-0.386
Mof_C 	C 	0.9914	0.809	0.7766	0.023
Mof_O 	O 	0.02992	0.35383	0.39541	-0.397
Mof_C 	C 	0.04078	0.33068	0.38447	0.381
Mof_C 	C 	0.06277	0.31638	0.39931	-0.155
Mof_C 	C 	0.0736	0.2882	0.3894	0.074
Mof_C 	C 	0.9861	0.2864	0.2566	0.017
Mof_C 	C 	0.9769	0.2999	0.2867	0.025
Mof_O 	O 	0.03026	0.31961	0.36132	-0.386
Mof_C 	C 	0.9914	0.309	0.2766	0.023
Mof_O 	O 	0.52992	0.85383	0.39541	-0.396
Mof_C 	C 	0.54078	0.83068	0.38447	0.381
Mof_C 	C 	0.56277	0.81638	0.39931	-0.155
Mof_C 	C 	0.5736	0.7882	0.3894	0.075
Mof_C 	C 	0.4861	0.7864	0.2566	-0.002
Mof_C 	C 	0.4769	0.7999	0.2867	0.024
Mof_O 	O 	0.53026	0.81961	0.36132	-0.385
Mof_C 	C 	0.4914	0.809	0.2766	0.022
Mof_O 	O 	0.52992	0.35383	0.89541	-0.396
Mof_C 	C 	0.54078	0.33068	0.88447	0.381
Mof_C 	C 	0.56277	0.31638	0.89931	-0.155
Mof_C 	C 	0.5736	0.2882	0.8894	0.075
Mof_C 	C 	0.4861	0.2864	0.7566	-0.002
Mof_C 	C 	0.4769	0.2999	0.7867	0.024
Mof_O 	O 	0.53026	0.31961	0.86132	-0.385
Mof_C 	C 	0.4914	0.309	0.7766	0.022
Mof_O 	O 	0.97008	0.85383	0.10459	-0.395
Mof_C 	C 	0.95922	0.83068	0.11553	0.381
Mof_C 	C 	0.93723	0.81638	0.10069	-0.155
Mof_C 	C 	0.9264	0.7882	0.1106	0.075
Mof_C 	C 	0.0139	0.7864	0.2434	-0.019
Mof_C 	C 	0.0231	0.7999	0.2133	0.023
Mof_O 	O 	0.96974	0.81961	0.13868	-0.384
Mof_C 	C 	0.0086	0.809	0.2234	0.021
Mof_O 	O 	0.97008	0.35383	0.60459	-0.395
Mof_C 	C 	0.95922	0.33068	0.61553	0.381
Mof_C 	C 	0.93723	0.31638	0.60069	-0.155
Mof_C 	C 	0.9264	0.2882	0.6106	0.075
Mof_C 	C 	0.0139	0.2864	0.7434	-0.019
Mof_C 	C 	0.0231	0.2999	0.7133	0.023
Mof_O 	O 	0.96974	0.31961	0.63868	-0.384
Mof_C 	C 	0.0086	0.309	0.7234	0.021
Mof_O 	O 	0.47008	0.85383	0.60459	-0.396
Mof_C 	C 	0.45922	0.83068	0.61553	0.381
Mof_C 	C 	0.43723	0.81638	0.60069	-0.155
Mof_C 	C 	0.4264	0.7882	0.6106	0.075
Mof_C 	C 	0.5139	0.7864	0.7434	-0.002
Mof_C 	C 	0.5231	0.7999	0.7133	0.024
Mof_O 	O 	0.46974	0.81961	0.63868	-0.385
Mof_C 	C 	0.5086	0.809	0.7234	0.022
Mof_O 	O 	0.47008	0.35383	0.10459	-0.396
Mof_C 	C 	0.45922	0.33068	0.11553	0.381
Mof_C 	C 	0.43723	0.31638	0.10069	-0.155
Mof_C 	C 	0.4264	0.2882	0.1106	0.075
Mof_C 	C 	0.5139	0.2864	0.2434	-0.002
Mof_C 	C 	0.5231	0.2999	0.2133	0.024
Mof_O 	O 	0.46974	0.31961	0.13868	-0.385
Mof_C 	C 	0.5086	0.309	0.2234	0.022
Mof_O 	O 	0.14617	0.10459	0.02992	-0.397
Mof_C 	C 	0.16932	0.11553	0.04078	0.381
Mof_C 	C 	0.18362	0.10069	0.06277	-0.155
Mof_C 	C 	0.2118	0.1106	0.0736	0.074
Mof_C 	C 	0.2136	0.2434	0.9861	0.017
Mof_C 	C 	0.2001	0.2133	0.9769	0.025
Mof_O 	O 	0.18039	0.13868	0.03026	-0.386
Mof_C 	C 	0.191	0.2234	0.9914	0.023
Mof_O 	O 	0.14617	0.60459	0.52992	-0.396
Mof_C 	C 	0.16932	0.61553	0.54078	0.381
Mof_C 	C 	0.18362	0.60069	0.56277	-0.155
Mof_C 	C 	0.2118	0.6106	0.5736	0.075
Mof_C 	C 	0.2136	0.7434	0.4861	-0.002
Mof_C 	C 	0.2001	0.7133	0.4769	0.024
Mof_O 	O 	0.18039	0.63868	0.53026	-0.385
Mof_C 	C 	0.191	0.7234	0.4914	0.022
Mof_O 	O 	0.64617	0.10459	0.52992	-0.396
Mof_C 	C 	0.66932	0.11553	0.54078	0.381
Mof_C 	C 	0.68362	0.10069	0.56277	-0.155
Mof_C 	C 	0.7118	0.1106	0.5736	0.075
Mof_C 	C 	0.7136	0.2434	0.4861	-0.002
Mof_C 	C 	0.7001	0.2133	0.4769	0.024
Mof_O 	O 	0.68039	0.13868	0.53026	-0.385
Mof_C 	C 	0.691	0.2234	0.4914	0.022
Mof_O 	O 	0.64617	0.60459	0.02992	-0.397
Mof_C 	C 	0.66932	0.61553	0.04078	0.381
Mof_C 	C 	0.68362	0.60069	0.06277	-0.155
Mof_C 	C 	0.7118	0.6106	0.0736	0.074
Mof_C 	C 	0.7136	0.7434	0.9861	0.017
Mof_C 	C 	0.7001	0.7133	0.9769	0.025
Mof_O 	O 	0.68039	0.63868	0.03026	-0.386
Mof_C 	C 	0.691	0.7234	0.9914	0.023
Mof_O 	O 	0.14617	0.89541	0.97008	-0.395
Mof_C 	C 	0.16932	0.88447	0.95922	0.381
Mof_C 	C 	0.18362	0.89931	0.93723	-0.155
Mof_C 	C 	0.2118	0.8894	0.9264	0.075
Mof_C 	C 	0.2136	0.7566	0.0139	-0.019
Mof_C 	C 	0.2001	0.7867	0.0231	0.023
Mof_O 	O 	0.18039	0.86132	0.96974	-0.384
Mof_C 	C 	0.191	0.7766	0.0086	0.021
Mof_O 	O 	0.14617	0.39541	0.47008	-0.396
Mof_C 	C 	0.16932	0.38447	0.45922	0.381
Mof_C 	C 	0.18362	0.39931	0.43723	-0.155
Mof_C 	C 	0.2118	0.3894	0.4264	0.075
Mof_C 	C 	0.2136	0.2566	0.5139	-0.002
Mof_C 	C 	0.2001	0.2867	0.5231	0.024
Mof_O 	O 	0.18039	0.36132	0.46974	-0.385
Mof_C 	C 	0.191	0.2766	0.5086	0.022
Mof_O 	O 	0.64617	0.89541	0.47008	-0.396
Mof_C 	C 	0.66932	0.88447	0.45922	0.381
Mof_C 	C 	0.68362	0.89931	0.43723	-0.155
Mof_C 	C 	0.7118	0.8894	0.4264	0.075
Mof_C 	C 	0.7136	0.7566	0.5139	-0.002
Mof_C 	C 	0.7001	0.7867	0.5231	0.024
Mof_O 	O 	0.68039	0.86132	0.46974	-0.385
Mof_C 	C 	0.691	0.7766	0.5086	0.022
Mof_O 	O 	0.64617	0.39541	0.97008	-0.395
Mof_C 	C 	0.66932	0.38447	0.95922	0.381
Mof_C 	C 	0.68362	0.39931	0.93723	-0.155
Mof_C 	C 	0.7118	0.3894	0.9264	0.075
Mof_C 	C 	0.7136	0.2566	0.0139	-0.019
Mof_C 	C 	0.7001	0.2867	0.0231	0.023
Mof_O 	O 	0.68039	0.36132	0.96974	-0.384
Mof_C 	C 	0.691	0.2766	0.0086	0.021
Mof_O 	O 	0.85383	0.10459	0.97008	-0.395
Mof_C 	C 	0.83068	0.11553	0.95922	0.381
Mof_C 	C 	0.81638	0.10069	0.93723	-0.155
Mof_C 	C 	0.7882	0.1106	0.9264	0.075
Mof_C 	C 	0.7864	0.2434	0.0139	-0.019
Mof_C 	C 	0.7999	0.2133	0.0231	0.023
Mof_O 	O 	0.81961	0.13868	0.96974	-0.384
Mof_C 	C 	0.809	0.2234	0.0086	0.021
Mof_O 	O 	0.85383	0.60459	0.47008	-0.396
Mof_C 	C 	0.83068	0.61553	0.45922	0.381
Mof_C 	C 	0.81638	0.60069	0.43723	-0.155
Mof_C 	C 	0.7882	0.6106	0.4264	0.075
Mof_C 	C 	0.7864	0.7434	0.5139	-0.002
Mof_C 	C 	0.7999	0.7133	0.5231	0.024
Mof_O 	O 	0.81961	0.63868	0.46974	-0.385
Mof_C 	C 	0.809	0.7234	0.5086	0.022
Mof_O 	O 	0.35383	0.10459	0.47008	-0.396
Mof_C 	C 	0.33068	0.11553	0.45922	0.381
Mof_C 	C 	0.31638	0.10069	0.43723	-0.155
Mof_C 	C 	0.2882	0.1106	0.4264	0.075
Mof_C 	C 	0.2864	0.2434	0.5139	-0.002
Mof_C 	C 	0.2999	0.2133	0.5231	0.024
Mof_O 	O 	0.31961	0.13868	0.46974	-0.385
Mof_C 	C 	0.309	0.2234	0.5086	0.022
Mof_O 	O 	0.35383	0.60459	0.97008	-0.395
Mof_C 	C 	0.33068	0.61553	0.95922	0.381
Mof_C 	C 	0.31638	0.60069	0.93723	-0.155
Mof_C 	C 	0.2882	0.6106	0.9264	0.075
Mof_C 	C 	0.2864	0.7434	0.0139	-0.019
Mof_C 	C 	0.2999	0.7133	0.0231	0.023
Mof_O 	O 	0.31961	0.63868	0.96974	-0.384
Mof_C 	C 	0.309	0.7234	0.0086	0.021
Mof_O 	O 	0.85383	0.89541	0.02992	-0.397
Mof_C 	C 	0.83068	0.88447	0.04078	0.381
Mof_C 	C 	0.81638	0.89931	0.06277	-0.155
Mof_C 	C 	0.7882	0.8894	0.0736	0.075
Mof_C 	C 	0.7864	0.7566	0.9861	0.017
Mof_C 	C 	0.7999	0.7867	0.9769	0.025
Mof_O 	O 	0.81961	0.86132	0.03026	-0.386
Mof_C 	C 	0.809	0.7766	0.9914	0.023
Mof_O 	O 	0.85383	0.39541	0.52992	-0.396
Mof_C 	C 	0.83068	0.38447	0.54078	0.381
Mof_C 	C 	0.81638	0.39931	0.56277	-0.155
Mof_C 	C 	0.7882	0.3894	0.5736	0.075
Mof_C 	C 	0.7864	0.2566	0.4861	-0.002
Mof_C 	C 	0.7999	0.2867	0.4769	0.024
Mof_O 	O 	0.81961	0.36132	0.53026	-0.385
Mof_C 	C 	0.809	0.2766	0.4914	0.022
Mof_O 	O 	0.35383	0.89541	0.52992	-0.396
Mof_C 	C 	0.33068	0.88447	0.54078	0.381
Mof_C 	C 	0.31638	0.89931	0.56277	-0.155
Mof_C 	C 	0.2882	0.8894	0.5736	0.075
Mof_C 	C 	0.2864	0.7566	0.4861	-0.002
Mof_C 	C 	0.2999	0.7867	0.4769	0.024
Mof_O 	O 	0.31961	0.86132	0.53026	-0.385
Mof_C 	C 	0.309	0.7766	0.4914	0.022
Mof_O 	O 	0.35383	0.39541	0.02992	-0.397
Mof_C 	C 	0.33068	0.38447	0.04078	0.381
Mof_C 	C 	0.31638	0.39931	0.06277	-0.155
Mof_C 	C 	0.2882	0.3894	0.0736	0.074
Mof_C 	C 	0.2864	0.2566	0.9861	0.017
Mof_C 	C 	0.2999	0.2867	0.9769	0.025
Mof_O 	O 	0.31961	0.36132	0.03026	-0.386
Mof_C 	C 	0.309	0.2766	0.9914	0.023
Mof_O 	O 	0.02992	0.89541	0.85383	-0.397
Mof_C 	C 	0.04078	0.88447	0.83068	0.381
Mof_C 	C 	0.06277	0.89931	0.81638	-0.155
Mof_C 	C 	0.0736	0.8894	0.7882	0.075
Mof_C 	C 	0.9861	0.7566	0.7864	0.017
Mof_C 	C 	0.9769	0.7867	0.7999	0.025
Mof_O 	O 	0.03026	0.86132	0.81961	-0.386
Mof_C 	C 	0.9914	0.7766	0.809	0.023
Mof_O 	O 	0.02992	0.39541	0.35383	-0.397
Mof_C 	C 	0.04078	0.38447	0.33068	0.381
Mof_C 	C 	0.06277	0.39931	0.31638	-0.155
Mof_C 	C 	0.0736	0.3894	0.2882	0.074
Mof_C 	C 	0.9861	0.2566	0.2864	0.017
Mof_C 	C 	0.9769	0.2867	0.2999	0.025
Mof_O 	O 	0.03026	0.36132	0.31961	-0.386
Mof_C 	C 	0.9914	0.2766	0.309	0.023
Mof_O 	O 	0.52992	0.89541	0.35383	-0.396
Mof_C 	C 	0.54078	0.88447	0.33068	0.381
Mof_C 	C 	0.56277	0.89931	0.31638	-0.155
Mof_C 	C 	0.5736	0.8894	0.2882	0.075
Mof_C 	C 	0.4861	0.7566	0.2864	-0.002
Mof_C 	C 	0.4769	0.7867	0.2999	0.024
Mof_O 	O 	0.53026	0.86132	0.31961	-0.385
Mof_C 	C 	0.4914	0.7766	0.309	0.022
Mof_O 	O 	0.52992	0.39541	0.85383	-0.396
Mof_C 	C 	0.54078	0.38447	0.83068	0.381
Mof_C 	C 	0.56277	0.39931	0.81638	-0.155
Mof_C 	C 	0.5736	0.3894	0.7882	0.075
Mof_C 	C 	0.4861	0.2566	0.7864	-0.002
Mof_C 	C 	0.4769	0.2867	0.7999	0.024
Mof_O 	O 	0.53026	0.36132	0.81961	-0.385
Mof_C 	C 	0.4914	0.2766	0.809	0.022
Mof_O 	O 	0.97008	0.10459	0.85383	-0.395
Mof_C 	C 	0.95922	0.11553	0.83068	0.381
Mof_C 	C 	0.93723	0.10069	0.81638	-0.155
Mof_C 	C 	0.9264	0.1106	0.7882	0.075
Mof_C 	C 	0.0139	0.2434	0.7864	-0.019
Mof_C 	C 	0.0231	0.2133	0.7999	0.023
Mof_O 	O 	0.96974	0.13868	0.81961	-0.384
Mof_C 	C 	0.0086	0.2234	0.809	0.021
Mof_O 	O 	0.97008	0.60459	0.35383	-0.395
Mof_C 	C 	0.95922	0.61553	0.33068	0.381
Mof_C 	C 	0.93723	0.60069	0.31638	-0.155
Mof_C 	C 	0.9264	0.6106	0.2882	0.075
Mof_C 	C 	0.0139	0.7434	0.2864	-0.019
Mof_C 	C 	0.0231	0.7133	0.2999	0.023
Mof_O 	O 	0.96974	0.63868	0.31961	-0.384
Mof_C 	C 	0.0086	0.7234	0.309	0.021
Mof_O 	O 	0.47008	0.10459	0.35383	-0.396
Mof_C 	C 	0.45922	0.11553	0.33068	0.381
Mof_C 	C 	0.43723	0.10069	0.31638	-0.155
Mof_C 	C 	0.4264	0.1106	0.2882	0.075
Mof_C 	C 	0.5139	0.2434	0.2864	-0.002
Mof_C 	C 	0.5231	0.2133	0.2999	0.024
Mof_O 	O 	0.46974	0.13868	0.31961	-0.385
Mof_C 	C 	0.5086	0.2234	0.309	0.022
Mof_O 	O 	0.47008	0.60459	0.85383	-0.396
Mof_C 	C 	0.45922	0.61553	0.83068	0.381
Mof_C 	C 	0.43723	0.60069	0.81638	-0.155
Mof_C 	C 	0.4264	0.6106	0.7882	0.075
Mof_C 	C 	0.5139	0.7434	0.7864	-0.002
Mof_C 	C 	0.5231	0.7133	0.7999	0.024
Mof_O 	O 	0.46974	0.63868	0.81961	-0.385
Mof_C 	C 	0.5086	0.7234	0.809	0.022
Mof_O 	O 	0.97008	0.89541	0.14617	-0.395
Mof_C 	C 	0.95922	0.88447	0.16932	0.381
Mof_C 	C 	0.93723	0.89931	0.18362	-0.155
Mof_C 	C 	0.9264	0.8894	0.2118	0.075
Mof_C 	C 	0.0139	0.7566	0.2136	-0.019
Mof_C 	C 	0.0231	0.7867	0.2001	0.023
Mof_O 	O 	0.96974	0.86132	0.18039	-0.384
Mof_C 	C 	0.0086	0.7766	0.191	0.021
Mof_O 	O 	0.97008	0.39541	0.64617	-0.395
Mof_C 	C 	0.95922	0.38447	0.66932	0.381
Mof_C 	C 	0.93723	0.39931	0.68362	-0.155
Mof_C 	C 	0.9264	0.3894	0.7118	0.075
Mof_C 	C 	0.0139	0.2566	0.7136	-0.019
Mof_C 	C 	0.0231	0.2867	0.7001	0.023
Mof_O 	O 	0.96974	0.36132	0.68039	-0.384
Mof_C 	C 	0.0086	0.2766	0.691	0.021
Mof_O 	O 	0.47008	0.89541	0.64617	-0.396
Mof_C 	C 	0.45922	0.88447	0.66932	0.381
Mof_C 	C 	0.43723	0.89931	0.68362	-0.155
Mof_C 	C 	0.4264	0.8894	0.7118	0.075
Mof_C 	C 	0.5139	0.7566	0.7136	-0.002
Mof_C 	C 	0.5231	0.7867	0.7001	0.024
Mof_O 	O 	0.46974	0.86132	0.68039	-0.385
Mof_C 	C 	0.5086	0.7766	0.691	0.022
Mof_O 	O 	0.47008	0.39541	0.14617	-0.396
Mof_C 	C 	0.45922	0.38447	0.16932	0.381
Mof_C 	C 	0.43723	0.39931	0.18362	-0.155
Mof_C 	C 	0.4264	0.3894	0.2118	0.075
Mof_C 	C 	0.5139	0.2566	0.2136	-0.002
Mof_C 	C 	0.5231	0.2867	0.2001	0.024
Mof_O 	O 	0.46974	0.36132	0.18039	-0.385
Mof_C 	C 	0.5086	0.2766	0.191	0.022
Mof_O 	O 	0.02992	0.10459	0.14617	-0.397
Mof_C 	C 	0.04078	0.11553	0.16932	0.381
Mof_C 	C 	0.06277	0.10069	0.18362	-0.155
Mof_C 	C 	0.0736	0.1106	0.2118	0.074
Mof_C 	C 	0.9861	0.2434	0.2136	0.017
Mof_C 	C 	0.9769	0.2133	0.2001	0.025
Mof_O 	O 	0.03026	0.13868	0.18039	-0.386
Mof_C 	C 	0.9914	0.2234	0.191	0.023
Mof_O 	O 	0.02992	0.60459	0.64617	-0.397
Mof_C 	C 	0.04078	0.61553	0.66932	0.381
Mof_C 	C 	0.06277	0.60069	0.68362	-0.155
Mof_C 	C 	0.0736	0.6106	0.7118	0.074
Mof_C 	C 	0.9861	0.7434	0.7136	0.017
Mof_C 	C 	0.9769	0.7133	0.7001	0.025
Mof_O 	O 	0.03026	0.63868	0.68039	-0.386
Mof_C 	C 	0.9914	0.7234	0.691	0.023
Mof_O 	O 	0.52992	0.10459	0.64617	-0.396
Mof_C 	C 	0.54078	0.11553	0.66932	0.381
Mof_C 	C 	0.56277	0.10069	0.68362	-0.155
Mof_C 	C 	0.5736	0.1106	0.7118	0.075
Mof_C 	C 	0.4861	0.2434	0.7136	-0.002
Mof_C 	C 	0.4769	0.2133	0.7001	0.024
Mof_O 	O 	0.53026	0.13868	0.68039	-0.385
Mof_C 	C 	0.4914	0.2234	0.691	0.022
Mof_O 	O 	0.52992	0.60459	0.14617	-0.396
Mof_C 	C 	0.54078	0.61553	0.16932	0.381
Mof_C 	C 	0.56277	0.60069	0.18362	-0.155
Mof_C 	C 	0.5736	0.6106	0.2118	0.075
Mof_C 	C 	0.4861	0.7434	0.2136	-0.002
Mof_C 	C 	0.4769	0.7133	0.2001	0.024
Mof_O 	O 	0.53026	0.63868	0.18039	-0.385
Mof_C 	C 	0.4914	0.7234	0.191	0.022
Mof_O 	O 	0.85383	0.02992	0.89541	-0.397
Mof_C 	C 	0.83068	0.04078	0.88447	0.381
Mof_C 	C 	0.81638	0.06277	0.89931	-0.155
Mof_C 	C 	0.7882	0.0736	0.8894	0.075
Mof_C 	C 	0.7864	0.9861	0.7566	0.017
Mof_C 	C 	0.7999	0.9769	0.7867	0.025
Mof_O 	O 	0.81961	0.03026	0.86132	-0.386
Mof_C 	C 	0.809	0.9914	0.7766	0.023
Mof_O 	O 	0.85383	0.52992	0.39541	-0.396
Mof_C 	C 	0.83068	0.54078	0.38447	0.381
Mof_C 	C 	0.81638	0.56277	0.39931	-0.155
Mof_C 	C 	0.7882	0.5736	0.3894	0.075
Mof_C 	C 	0.7864	0.4861	0.2566	-0.002
Mof_C 	C 	0.7999	0.4769	0.2867	0.024
Mof_O 	O 	0.81961	0.53026	0.36132	-0.385
Mof_C 	C 	0.809	0.4914	0.2766	0.022
Mof_O 	O 	0.35383	0.02992	0.39541	-0.397
Mof_C 	C 	0.33068	0.04078	0.38447	0.381
Mof_C 	C 	0.31638	0.06277	0.39931	-0.155
Mof_C 	C 	0.2882	0.0736	0.3894	0.074
Mof_C 	C 	0.2864	0.9861	0.2566	0.017
Mof_C 	C 	0.2999	0.9769	0.2867	0.025
Mof_O 	O 	0.31961	0.03026	0.36132	-0.386
Mof_C 	C 	0.309	0.9914	0.2766	0.023
Mof_O 	O 	0.35383	0.52992	0.89541	-0.396
Mof_C 	C 	0.33068	0.54078	0.88447	0.381
Mof_C 	C 	0.31638	0.56277	0.89931	-0.155
Mof_C 	C 	0.2882	0.5736	0.8894	0.075
Mof_C 	C 	0.2864	0.4861	0.7566	-0.002
Mof_C 	C 	0.2999	0.4769	0.7867	0.024
Mof_O 	O 	0.31961	0.53026	0.86132	-0.385
Mof_C 	C 	0.309	0.4914	0.7766	0.022
Mof_O 	O 	0.85383	0.97008	0.10459	-0.395
Mof_C 	C 	0.83068	0.95922	0.11553	0.381
Mof_C 	C 	0.81638	0.93723	0.10069	-0.155
Mof_C 	C 	0.7882	0.9264	0.1106	0.075
Mof_C 	C 	0.7864	0.0139	0.2434	-0.019
Mof_C 	C 	0.7999	0.0231	0.2133	0.023
Mof_O 	O 	0.81961	0.96974	0.13868	-0.384
Mof_C 	C 	0.809	0.0086	0.2234	0.021
Mof_O 	O 	0.85383	0.47008	0.60459	-0.396
Mof_C 	C 	0.83068	0.45922	0.61553	0.381
Mof_C 	C 	0.81638	0.43723	0.60069	-0.155
Mof_C 	C 	0.7882	0.4264	0.6106	0.075
Mof_C 	C 	0.7864	0.5139	0.7434	-0.002
Mof_C 	C 	0.7999	0.5231	0.7133	0.024
Mof_O 	O 	0.81961	0.46974	0.63868	-0.385
Mof_C 	C 	0.809	0.5086	0.7234	0.022
Mof_O 	O 	0.35383	0.97008	0.60459	-0.395
Mof_C 	C 	0.33068	0.95922	0.61553	0.381
Mof_C 	C 	0.31638	0.93723	0.60069	-0.155
Mof_C 	C 	0.2882	0.9264	0.6106	0.075
Mof_C 	C 	0.2864	0.0139	0.7434	-0.019
Mof_C 	C 	0.2999	0.0231	0.7133	0.023
Mof_O 	O 	0.31961	0.96974	0.63868	-0.384
Mof_C 	C 	0.309	0.0086	0.7234	0.021
Mof_O 	O 	0.35383	0.47008	0.10459	-0.396
Mof_C 	C 	0.33068	0.45922	0.11553	0.381
Mof_C 	C 	0.31638	0.43723	0.10069	-0.155
Mof_C 	C 	0.2882	0.4264	0.1106	0.075
Mof_C 	C 	0.2864	0.5139	0.2434	-0.002
Mof_C 	C 	0.2999	0.5231	0.2133	0.024
Mof_O 	O 	0.31961	0.46974	0.13868	-0.385
Mof_C 	C 	0.309	0.5086	0.2234	0.022
Mof_O 	O 	0.14617	0.97008	0.89541	-0.395
Mof_C 	C 	0.16932	0.95922	0.88447	0.381
Mof_C 	C 	0.18362	0.93723	0.89931	-0.155
Mof_C 	C 	0.2118	0.9264	0.8894	0.075
Mof_C 	C 	0.2136	0.0139	0.7566	-0.019
Mof_C 	C 	0.2001	0.0231	0.7867	0.023
Mof_O 	O 	0.18039	0.96974	0.86132	-0.384
Mof_C 	C 	0.191	0.0086	0.7766	0.021
Mof_O 	O 	0.14617	0.47008	0.39541	-0.396
Mof_C 	C 	0.16932	0.45922	0.38447	0.381
Mof_C 	C 	0.18362	0.43723	0.39931	-0.155
Mof_C 	C 	0.2118	0.4264	0.3894	0.075
Mof_C 	C 	0.2136	0.5139	0.2566	-0.002
Mof_C 	C 	0.2001	0.5231	0.2867	0.024
Mof_O 	O 	0.18039	0.46974	0.36132	-0.385
Mof_C 	C 	0.191	0.5086	0.2766	0.022
Mof_O 	O 	0.64617	0.97008	0.39541	-0.395
Mof_C 	C 	0.66932	0.95922	0.38447	0.381
Mof_C 	C 	0.68362	0.93723	0.39931	-0.155
Mof_C 	C 	0.7118	0.9264	0.3894	0.075
Mof_C 	C 	0.7136	0.0139	0.2566	-0.019
Mof_C 	C 	0.7001	0.0231	0.2867	0.023
Mof_O 	O 	0.68039	0.96974	0.36132	-0.384
Mof_C 	C 	0.691	0.0086	0.2766	0.021
Mof_O 	O 	0.64617	0.47008	0.89541	-0.396
Mof_C 	C 	0.66932	0.45922	0.88447	0.381
Mof_C 	C 	0.68362	0.43723	0.89931	-0.155
Mof_C 	C 	0.7118	0.4264	0.8894	0.075
Mof_C 	C 	0.7136	0.5139	0.7566	-0.002
Mof_C 	C 	0.7001	0.5231	0.7867	0.024
Mof_O 	O 	0.68039	0.46974	0.86132	-0.385
Mof_C 	C 	0.691	0.5086	0.7766	0.022
Mof_O 	O 	0.14617	0.02992	0.10459	-0.397
Mof_C 	C 	0.16932	0.04078	0.11553	0.381
Mof_C 	C 	0.18362	0.06277	0.10069	-0.155
Mof_C 	C 	0.2118	0.0736	0.1106	0.074
Mof_C 	C 	0.2136	0.9861	0.2434	0.017
Mof_C 	C 	0.2001	0.9769	0.2133	0.025
Mof_O 	O 	0.18039	0.03026	0.13868	-0.386
Mof_C 	C 	0.191	0.9914	0.2234	0.023
Mof_O 	O 	0.14617	0.52992	0.60459	-0.396
Mof_C 	C 	0.16932	0.54078	0.61553	0.381
Mof_C 	C 	0.18362	0.56277	0.60069	-0.155
Mof_C 	C 	0.2118	0.5736	0.6106	0.075
Mof_C 	C 	0.2136	0.4861	0.7434	-0.002
Mof_C 	C 	0.2001	0.4769	0.7133	0.024
Mof_O 	O 	0.18039	0.53026	0.63868	-0.385
Mof_C 	C 	0.191	0.4914	0.7234	0.022
Mof_O 	O 	0.64617	0.02992	0.60459	-0.397
Mof_C 	C 	0.66932	0.04078	0.61553	0.381
Mof_C 	C 	0.68362	0.06277	0.60069	-0.155
Mof_C 	C 	0.7118	0.0736	0.6106	0.074
Mof_C 	C 	0.7136	0.9861	0.7434	0.017
Mof_C 	C 	0.7001	0.9769	0.7133	0.025
Mof_O 	O 	0.68039	0.03026	0.63868	-0.386
Mof_C 	C 	0.691	0.9914	0.7234	0.023
Mof_O 	O 	0.64617	0.52992	0.10459	-0.396
Mof_C 	C 	0.66932	0.54078	0.11553	0.381
Mof_C 	C 	0.68362	0.56277	0.10069	-0.155
Mof_C 	C 	0.7118	0.5736	0.1106	0.075
Mof_C 	C 	0.7136	0.4861	0.2434	-0.002
Mof_C 	C 	0.7001	0.4769	0.2133	0.024
Mof_O 	O 	0.68039	0.53026	0.13868	-0.385
Mof_C 	C 	0.691	0.4914	0.2234	0.022
Mof_O 	O 	0.89541	0.85383	0.02992	-0.397
Mof_C 	C 	0.88447	0.83068	0.04078	0.381
Mof_C 	C 	0.89931	0.81638	0.06277	-0.155
Mof_C 	C 	0.8894	0.7882	0.0736	0.075
Mof_C 	C 	0.7566	0.7864	0.9861	0.017
Mof_C 	C 	0.7867	0.7999	0.9769	0.025
Mof_O 	O 	0.86132	0.81961	0.03026	-0.386
Mof_C 	C 	0.7766	0.809	0.9914	0.023
Mof_O 	O 	0.89541	0.35383	0.52992	-0.396
Mof_C 	C 	0.88447	0.33068	0.54078	0.381
Mof_C 	C 	0.89931	0.31638	0.56277	-0.155
Mof_C 	C 	0.8894	0.2882	0.5736	0.075
Mof_C 	C 	0.7566	0.2864	0.4861	-0.002
Mof_C 	C 	0.7867	0.2999	0.4769	0.024
Mof_O 	O 	0.86132	0.31961	0.53026	-0.385
Mof_C 	C 	0.7766	0.309	0.4914	0.022
Mof_O 	O 	0.39541	0.85383	0.52992	-0.396
Mof_C 	C 	0.38447	0.83068	0.54078	0.381
Mof_C 	C 	0.39931	0.81638	0.56277	-0.155
Mof_C 	C 	0.3894	0.7882	0.5736	0.075
Mof_C 	C 	0.2566	0.7864	0.4861	-0.002
Mof_C 	C 	0.2867	0.7999	0.4769	0.024
Mof_O 	O 	0.36132	0.81961	0.53026	-0.385
Mof_C 	C 	0.2766	0.809	0.4914	0.022
Mof_O 	O 	0.39541	0.35383	0.02992	-0.397
Mof_C 	C 	0.38447	0.33068	0.04078	0.381
Mof_C 	C 	0.39931	0.31638	0.06277	-0.155
Mof_C 	C 	0.3894	0.2882	0.0736	0.074
Mof_C 	C 	0.2566	0.2864	0.9861	0.017
Mof_C 	C 	0.2867	0.2999	0.9769	0.025
Mof_O 	O 	0.36132	0.31961	0.03026	-0.386
Mof_C 	C 	0.2766	0.309	0.9914	0.023
Mof_O 	O 	0.10459	0.85383	0.97008	-0.395
Mof_C 	C 	0.11553	0.83068	0.95922	0.381
Mof_C 	C 	0.10069	0.81638	0.93723	-0.155
Mof_C 	C 	0.1106	0.7882	0.9264	0.075
Mof_C 	C 	0.2434	0.7864	0.0139	-0.019
Mof_C 	C 	0.2133	0.7999	0.0231	0.023
Mof_O 	O 	0.13868	0.81961	0.96974	-0.384
Mof_C 	C 	0.2234	0.809	0.0086	0.021
Mof_O 	O 	0.10459	0.35383	0.47008	-0.396
Mof_C 	C 	0.11553	0.33068	0.45922	0.381
Mof_C 	C 	0.10069	0.31638	0.43723	-0.155
Mof_C 	C 	0.1106	0.2882	0.4264	0.075
Mof_C 	C 	0.2434	0.2864	0.5139	-0.002
Mof_C 	C 	0.2133	0.2999	0.5231	0.024
Mof_O 	O 	0.13868	0.31961	0.46974	-0.385
Mof_C 	C 	0.2234	0.309	0.5086	0.022
Mof_O 	O 	0.60459	0.85383	0.47008	-0.396
Mof_C 	C 	0.61553	0.83068	0.45922	0.381
Mof_C 	C 	0.60069	0.81638	0.43723	-0.155
Mof_C 	C 	0.6106	0.7882	0.4264	0.075
Mof_C 	C 	0.7434	0.7864	0.5139	-0.002
Mof_C 	C 	0.7133	0.7999	0.5231	0.024
Mof_O 	O 	0.63868	0.81961	0.46974	-0.385
Mof_C 	C 	0.7234	0.809	0.5086	0.022
Mof_O 	O 	0.60459	0.35383	0.97008	-0.395
Mof_C 	C 	0.61553	0.33068	0.95922	0.381
Mof_C 	C 	0.60069	0.31638	0.93723	-0.155
Mof_C 	C 	0.6106	0.2882	0.9264	0.075
Mof_C 	C 	0.7434	0.2864	0.0139	-0.019
Mof_C 	C 	0.7133	0.2999	0.0231	0.023
Mof_O 	O 	0.63868	0.31961	0.96974	-0.384
Mof_C 	C 	0.7234	0.309	0.0086	0.021
Mof_O 	O 	0.89541	0.14617	0.97008	-0.395
Mof_C 	C 	0.88447	0.16932	0.95922	0.381
Mof_C 	C 	0.89931	0.18362	0.93723	-0.155
Mof_C 	C 	0.8894	0.2118	0.9264	0.075
Mof_C 	C 	0.7566	0.2136	0.0139	-0.019
Mof_C 	C 	0.7867	0.2001	0.0231	0.023
Mof_O 	O 	0.86132	0.18039	0.96974	-0.384
Mof_C 	C 	0.7766	0.191	0.0086	0.021
Mof_O 	O 	0.89541	0.64617	0.47008	-0.396
Mof_C 	C 	0.88447	0.66932	0.45922	0.381
Mof_C 	C 	0.89931	0.68362	0.43723	-0.155
Mof_C 	C 	0.8894	0.7118	0.4264	0.075
Mof_C 	C 	0.7566	0.7136	0.5139	-0.002
Mof_C 	C 	0.7867	0.7001	0.5231	0.024
Mof_O 	O 	0.86132	0.68039	0.46974	-0.385
Mof_C 	C 	0.7766	0.691	0.5086	0.022
Mof_O 	O 	0.39541	0.14617	0.47008	-0.396
Mof_C 	C 	0.38447	0.16932	0.45922	0.381
Mof_C 	C 	0.39931	0.18362	0.43723	-0.155
Mof_C 	C 	0.3894	0.2118	0.4264	0.075
Mof_C 	C 	0.2566	0.2136	0.5139	-0.002
Mof_C 	C 	0.2867	0.2001	0.5231	0.024
Mof_O 	O 	0.36132	0.18039	0.46974	-0.385
Mof_C 	C 	0.2766	0.191	0.5086	0.022
Mof_O 	O 	0.39541	0.64617	0.97008	-0.395
Mof_C 	C 	0.38447	0.66932	0.95922	0.381
Mof_C 	C 	0.39931	0.68362	0.93723	-0.155
Mof_C 	C 	0.3894	0.7118	0.9264	0.075
Mof_C 	C 	0.2566	0.7136	0.0139	-0.019
Mof_C 	C 	0.2867	0.7001	0.0231	0.023
Mof_O 	O 	0.36132	0.68039	0.96974	-0.384
Mof_C 	C 	0.2766	0.691	0.0086	0.021
Mof_O 	O 	0.10459	0.14617	0.02992	-0.397
Mof_C 	C 	0.11553	0.16932	0.04078	0.381
Mof_C 	C 	0.10069	0.18362	0.06277	-0.155
Mof_C 	C 	0.1106	0.2118	0.0736	0.074
Mof_C 	C 	0.2434	0.2136	0.9861	0.017
Mof_C 	C 	0.2133	0.2001	0.9769	0.025
Mof_O 	O 	0.13868	0.18039	0.03026	-0.386
Mof_C 	C 	0.2234	0.191	0.9914	0.023
Mof_O 	O 	0.10459	0.64617	0.52992	-0.396
Mof_C 	C 	0.11553	0.66932	0.54078	0.381
Mof_C 	C 	0.10069	0.68362	0.56277	-0.155
Mof_C 	C 	0.1106	0.7118	0.5736	0.075
Mof_C 	C 	0.2434	0.7136	0.4861	-0.002
Mof_C 	C 	0.2133	0.7001	0.4769	0.024
Mof_O 	O 	0.13868	0.68039	0.53026	-0.385
Mof_C 	C 	0.2234	0.691	0.4914	0.022
Mof_O 	O 	0.60459	0.14617	0.52992	-0.396
Mof_C 	C 	0.61553	0.16932	0.54078	0.381
Mof_C 	C 	0.60069	0.18362	0.56277	-0.155
Mof_C 	C 	0.6106	0.2118	0.5736	0.075
Mof_C 	C 	0.7434	0.2136	0.4861	-0.002
Mof_C 	C 	0.7133	0.2001	0.4769	0.024
Mof_O 	O 	0.63868	0.18039	0.53026	-0.385
Mof_C 	C 	0.7234	0.191	0.4914	0.022
Mof_O 	O 	0.60459	0.64617	0.02992	-0.397
Mof_C 	C 	0.61553	0.66932	0.04078	0.381
Mof_C 	C 	0.60069	0.68362	0.06277	-0.155
Mof_C 	C 	0.6106	0.7118	0.0736	0.074
Mof_C 	C 	0.7434	0.7136	0.9861	0.017
Mof_C 	C 	0.7133	0.7001	0.9769	0.025
Mof_O 	O 	0.63868	0.68039	0.03026	-0.386
Mof_C 	C 	0.7234	0.691	0.9914	0.023
Mof_O 	O 	0.89541	0.02992	0.14617	-0.397
Mof_C 	C 	0.88447	0.04078	0.16932	0.381
Mof_C 	C 	0.89931	0.06277	0.18362	-0.155
Mof_C 	C 	0.8894	0.0736	0.2118	0.075
Mof_C 	C 	0.7566	0.9861	0.2136	0.017
Mof_C 	C 	0.7867	0.9769	0.2001	0.025
Mof_O 	O 	0.86132	0.03026	0.18039	-0.386
Mof_C 	C 	0.7766	0.9914	0.191	0.023
Mof_O 	O 	0.89541	0.52992	0.64617	-0.396
Mof_C 	C 	0.88447	0.54078	0.66932	0.381
Mof_C 	C 	0.89931	0.56277	0.68362	-0.155
Mof_C 	C 	0.8894	0.5736	0.7118	0.075
Mof_C 	C 	0.7566	0.4861	0.7136	-0.002
Mof_C 	C 	0.7867	0.4769	0.7001	0.024
Mof_O 	O 	0.86132	0.53026	0.68039	-0.385
Mof_C 	C 	0.7766	0.4914	0.691	0.022
Mof_O 	O 	0.39541	0.02992	0.64617	-0.397
Mof_C 	C 	0.38447	0.04078	0.66932	0.381
Mof_C 	C 	0.39931	0.06277	0.68362	-0.155
Mof_C 	C 	0.3894	0.0736	0.7118	0.074
Mof_C 	C 	0.2566	0.9861	0.7136	0.017
Mof_C 	C 	0.2867	0.9769	0.7001	0.025
Mof_O 	O 	0.36132	0.03026	0.68039	-0.386
Mof_C 	C 	0.2766	0.9914	0.691	0.023
Mof_O 	O 	0.39541	0.52992	0.14617	-0.396
Mof_C 	C 	0.38447	0.54078	0.16932	0.381
Mof_C 	C 	0.39931	0.56277	0.18362	-0.155
Mof_C 	C 	0.3894	0.5736	0.2118	0.075
Mof_C 	C 	0.2566	0.4861	0.2136	-0.002
Mof_C 	C 	0.2867	0.4769	0.2001	0.024
Mof_O 	O 	0.36132	0.53026	0.18039	-0.385
Mof_C 	C 	0.2766	0.4914	0.191	0.022
Mof_O 	O 	0.10459	0.97008	0.14617	-0.395
Mof_C 	C 	0.11553	0.95922	0.16932	0.381
Mof_C 	C 	0.10069	0.93723	0.18362	-0.155
Mof_C 	C 	0.1106	0.9264	0.2118	0.075
Mof_C 	C 	0.2434	0.0139	0.2136	-0.019
Mof_C 	C 	0.2133	0.0231	0.2001	0.023
Mof_O 	O 	0.13868	0.96974	0.18039	-0.384
Mof_C 	C 	0.2234	0.0086	0.191	0.021
Mof_O 	O 	0.10459	0.47008	0.64617	-0.396
Mof_C 	C 	0.11553	0.45922	0.66932	0.381
Mof_C 	C 	0.10069	0.43723	0.68362	-0.155
Mof_C 	C 	0.1106	0.4264	0.7118	0.075
Mof_C 	C 	0.2434	0.5139	0.7136	-0.002
Mof_C 	C 	0.2133	0.5231	0.7001	0.024
Mof_O 	O 	0.13868	0.46974	0.68039	-0.385
Mof_C 	C 	0.2234	0.5086	0.691	0.022
Mof_O 	O 	0.60459	0.97008	0.64617	-0.395
Mof_C 	C 	0.61553	0.95922	0.66932	0.381
Mof_C 	C 	0.60069	0.93723	0.68362	-0.155
Mof_C 	C 	0.6106	0.9264	0.7118	0.075
Mof_C 	C 	0.7434	0.0139	0.7136	-0.019
Mof_C 	C 	0.7133	0.0231	0.7001	0.023
Mof_O 	O 	0.63868	0.96974	0.68039	-0.384
Mof_C 	C 	0.7234	0.0086	0.691	0.021
Mof_O 	O 	0.60459	0.47008	0.14617	-0.396
Mof_C 	C 	0.61553	0.45922	0.16932	0.381
Mof_C 	C 	0.60069	0.43723	0.18362	-0.155
Mof_C 	C 	0.6106	0.4264	0.2118	0.075
Mof_C 	C 	0.7434	0.5139	0.2136	-0.002
Mof_C 	C 	0.7133	0.5231	0.2001	0.024
Mof_O 	O 	0.63868	0.46974	0.18039	-0.385
Mof_C 	C 	0.7234	0.5086	0.191	0.022
Mof_O 	O 	0.89541	0.97008	0.85383	-0.395
Mof_C 	C 	0.88447	0.95922	0.83068	0.381
Mof_C 	C 	0.89931	0.93723	0.81638	-0.155
Mof_C 	C 	0.8894	0.9264	0.7882	0.075
Mof_C 	C 	0.7566	0.0139	0.7864	-0.019
Mof_C 	C 	0.7867	0.0231	0.7999	0.023
Mof_O 	O 	0.86132	0.96974	0.81961	-0.384
Mof_C 	C 	0.7766	0.0086	0.809	0.021
Mof_O 	O 	0.89541	0.47008	0.35383	-0.396
Mof_C 	C 	0.88447	0.45922	0.33068	0.381
Mof_C 	C 	0.89931	0.43723	0.31638	-0.155
Mof_C 	C 	0.8894	0.4264	0.2882	0.075
Mof_C 	C 	0.7566	0.5139	0.2864	-0.002
Mof_C 	C 	0.7867	0.5231	0.2999	0.024
Mof_O 	O 	0.86132	0.46974	0.31961	-0.385
Mof_C 	C 	0.7766	0.5086	0.309	0.022
Mof_O 	O 	0.39541	0.97008	0.35383	-0.395
Mof_C 	C 	0.38447	0.95922	0.33068	0.381
Mof_C 	C 	0.39931	0.93723	0.31638	-0.155
Mof_C 	C 	0.3894	0.9264	0.2882	0.075
Mof_C 	C 	0.2566	0.0139	0.2864	-0.019
Mof_C 	C 	0.2867	0.0231	0.2999	0.023
Mof_O 	O 	0.36132	0.96974	0.31961	-0.384
Mof_C 	C 	0.2766	0.0086	0.309	0.021
Mof_O 	O 	0.39541	0.47008	0.85383	-0.396
Mof_C 	C 	0.38447	0.45922	0.83068	0.381
Mof_C 	C 	0.39931	0.43723	0.81638	-0.155
Mof_C 	C 	0.3894	0.4264	0.7882	0.075
Mof_C 	C 	0.2566	0.5139	0.7864	-0.002
Mof_C 	C 	0.2867	0.5231	0.7999	0.024
Mof_O 	O 	0.36132	0.46974	0.81961	-0.385
Mof_C 	C 	0.2766	0.5086	0.809	0.022
Mof_O 	O 	0.10459	0.02992	0.85383	-0.397
Mof_C 	C 	0.11553	0.04078	0.83068	0.381
Mof_C 	C 	0.10069	0.06277	0.81638	-0.155
Mof_C 	C 	0.1106	0.0736	0.7882	0.074
Mof_C 	C 	0.2434	0.9861	0.7864	0.017
Mof_C 	C 	0.2133	0.9769	0.7999	0.025
Mof_O 	O 	0.13868	0.03026	0.81961	-0.386
Mof_C 	C 	0.2234	0.9914	0.809	0.023
Mof_O 	O 	0.10459	0.52992	0.35383	-0.396
Mof_C 	C 	0.11553	0.54078	0.33068	0.381
Mof_C 	C 	0.10069	0.56277	0.31638	-0.155
Mof_C 	C 	0.1106	0.5736	0.2882	0.075
Mof_C 	C 	0.2434	0.4861	0.2864	-0.002
Mof_C 	C 	0.2133	0.4769	0.2999	0.024
Mof_O 	O 	0.13868	0.53026	0.31961	-0.385
Mof_C 	C 	0.2234	0.4914	0.309	0.022
Mof_O 	O 	0.60459	0.02992	0.35383	-0.397
Mof_C 	C 	0.61553	0.04078	0.33068	0.381
Mof_C 	C 	0.60069	0.06277	0.31638	-0.155
Mof_C 	C 	0.6106	0.0736	0.2882	0.074
Mof_C 	C 	0.7434	0.9861	0.2864	0.017
Mof_C 	C 	0.7133	0.9769	0.2999	0.025
Mof_O 	O 	0.63868	0.03026	0.31961	-0.386
Mof_C 	C 	0.7234	0.9914	0.309	0.023
Mof_O 	O 	0.60459	0.52992	0.85383	-0.396
Mof_C 	C 	0.61553	0.54078	0.83068	0.381
Mof_C 	C 	0.60069	0.56277	0.81638	-0.155
Mof_C 	C 	0.6106	0.5736	0.7882	0.075
Mof_C 	C 	0.7434	0.4861	0.7864	-0.002
Mof_C 	C 	0.7133	0.4769	0.7999	0.024
Mof_O 	O 	0.63868	0.53026	0.81961	-0.385
Mof_C 	C 	0.7234	0.4914	0.809	0.022
Mof_O 	O 	0.02992	0.85383	0.10459	-0.397
Mof_C 	C 	0.04078	0.83068	0.11553	0.381
Mof_C 	C 	0.06277	0.81638	0.10069	-0.155
Mof_C 	C 	0.0736	0.7882	0.1106	0.074
Mof_C 	C 	0.9861	0.7864	0.2434	0.017
Mof_C 	C 	0.9769	0.7999	0.2133	0.025
Mof_O 	O 	0.03026	0.81961	0.13868	-0.386
Mof_C 	C 	0.9914	0.809	0.2234	0.023
Mof_O 	O 	0.02992	0.35383	0.60459	-0.397
Mof_C 	C 	0.04078	0.33068	0.61553	0.381
Mof_C 	C 	0.06277	0.31638	0.60069	-0.155
Mof_C 	C 	0.0736	0.2882	0.6106	0.074
Mof_C 	C 	0.9861	0.2864	0.7434	0.017
Mof_C 	C 	0.9769	0.2999	0.7133	0.025
Mof_O 	O 	0.03026	0.31961	0.63868	-0.386
Mof_C 	C 	0.9914	0.309	0.7234	0.023
Mof_O 	O 	0.52992	0.85383	0.60459	-0.396
Mof_C 	C 	0.54078	0.83068	0.61553	0.381
Mof_C 	C 	0.56277	0.81638	0.60069	-0.155
Mof_C 	C 	0.5736	0.7882	0.6106	0.075
Mof_C 	C 	0.4861	0.7864	0.7434	-0.002
Mof_C 	C 	0.4769	0.7999	0.7133	0.024
Mof_O 	O 	0.53026	0.81961	0.63868	-0.385
Mof_C 	C 	0.4914	0.809	0.7234	0.022
Mof_O 	O 	0.52992	0.35383	0.10459	-0.396
Mof_C 	C 	0.54078	0.33068	0.11553	0.381
Mof_C 	C 	0.56277	0.31638	0.10069	-0.155
Mof_C 	C 	0.5736	0.2882	0.1106	0.075
Mof_C 	C 	0.4861	0.2864	0.2434	-0.002
Mof_C 	C 	0.4769	0.2999	0.2133	0.024
Mof_O 	O 	0.53026	0.31961	0.13868	-0.385
Mof_C 	C 	0.4914	0.309	0.2234	0.022
Mof_O 	O 	0.97008	0.85383	0.89541	-0.395
Mof_C 	C 	0.95922	0.83068	0.88447	0.381
Mof_C 	C 	0.93723	0.81638	0.89931	-0.155
Mof_C 	C 	0.9264	0.7882	0.8894	0.075
Mof_C 	C 	0.0139	0.7864	0.7566	-0.019
Mof_C 	C 	0.0231	0.7999	0.7867	0.023
Mof_O 	O 	0.96974	0.81961	0.86132	-0.384
Mof_C 	C 	0.0086	0.809	0.7766	0.021
Mof_O 	O 	0.97008	0.35383	0.39541	-0.395
Mof_C 	C 	0.95922	0.33068	0.38447	0.381
Mof_C 	C 	0.93723	0.31638	0.39931	-0.155
Mof_C 	C 	0.9264	0.2882	0.3894	0.075
Mof_C 	C 	0.0139	0.2864	0.2566	-0.019
Mof_C 	C 	0.0231	0.2999	0.2867	0.023
Mof_O 	O 	0.96974	0.31961	0.36132	-0.384
Mof_C 	C 	0.0086	0.309	0.2766	0.021
Mof_O 	O 	0.47008	0.85383	0.39541	-0.396
Mof_C 	C 	0.45922	0.83068	0.38447	0.381
Mof_C 	C 	0.43723	0.81638	0.39931	-0.155
Mof_C 	C 	0.4264	0.7882	0.3894	0.075
Mof_C 	C 	0.5139	0.7864	0.2566	-0.002
Mof_C 	C 	0.5231	0.7999	0.2867	0.024
Mof_O 	O 	0.46974	0.81961	0.36132	-0.385
Mof_C 	C 	0.5086	0.809	0.2766	0.022
Mof_O 	O 	0.47008	0.35383	0.89541	-0.396
Mof_C 	C 	0.45922	0.33068	0.88447	0.381
Mof_C 	C 	0.43723	0.31638	0.89931	-0.155
Mof_C 	C 	0.4264	0.2882	0.8894	0.075
Mof_C 	C 	0.5139	0.2864	0.7566	-0.002
Mof_C 	C 	0.5231	0.2999	0.7867	0.024
Mof_O 	O 	0.46974	0.31961	0.86132	-0.385
Mof_C 	C 	0.5086	0.309	0.7766	0.022
Mof_O 	O 	0.97008	0.14617	0.10459	-0.395
Mof_C 	C 	0.95922	0.16932	0.11553	0.381
Mof_C 	C 	0.93723	0.18362	0.10069	-0.155
Mof_C 	C 	0.9264	0.2118	0.1106	0.075
Mof_C 	C 	0.0139	0.2136	0.2434	-0.019
Mof_C 	C 	0.0231	0.2001	0.2133	0.023
Mof_O 	O 	0.96974	0.18039	0.13868	-0.384
Mof_C 	C 	0.0086	0.191	0.2234	0.021
Mof_O 	O 	0.97008	0.64617	0.60459	-0.395
Mof_C 	C 	0.95922	0.66932	0.61553	0.381
Mof_C 	C 	0.93723	0.68362	0.60069	-0.155
Mof_C 	C 	0.9264	0.7118	0.6106	0.075
Mof_C 	C 	0.0139	0.7136	0.7434	-0.019
Mof_C 	C 	0.0231	0.7001	0.7133	0.023
Mof_O 	O 	0.96974	0.68039	0.63868	-0.384
Mof_C 	C 	0.0086	0.691	0.7234	0.021
Mof_O 	O 	0.47008	0.14617	0.60459	-0.396
Mof_C 	C 	0.45922	0.16932	0.61553	0.381
Mof_C 	C 	0.43723	0.18362	0.60069	-0.155
Mof_C 	C 	0.4264	0.2118	0.6106	0.075
Mof_C 	C 	0.5139	0.2136	0.7434	-0.002
Mof_C 	C 	0.5231	0.2001	0.7133	0.024
Mof_O 	O 	0.46974	0.18039	0.63868	-0.385
Mof_C 	C 	0.5086	0.191	0.7234	0.022
Mof_O 	O 	0.47008	0.64617	0.10459	-0.396
Mof_C 	C 	0.45922	0.66932	0.11553	0.381
Mof_C 	C 	0.43723	0.68362	0.10069	-0.155
Mof_C 	C 	0.4264	0.7118	0.1106	0.075
Mof_C 	C 	0.5139	0.7136	0.2434	-0.002
Mof_C 	C 	0.5231	0.7001	0.2133	0.024
Mof_O 	O 	0.46974	0.68039	0.13868	-0.385
Mof_C 	C 	0.5086	0.691	0.2234	0.022
Mof_O 	O 	0.02992	0.14617	0.89541	-0.397
Mof_C 	C 	0.04078	0.16932	0.88447	0.381
Mof_C 	C 	0.06277	0.18362	0.89931	-0.155
Mof_C 	C 	0.0736	0.2118	0.8894	0.075
Mof_C 	C 	0.9861	0.2136	0.7566	0.017
Mof_C 	C 	0.9769	0.2001	0.7867	0.025
Mof_O 	O 	0.03026	0.18039	0.86132	-0.386
Mof_C 	C 	0.9914	0.191	0.7766	0.023
Mof_O 	O 	0.02992	0.64617	0.39541	-0.397
Mof_C 	C 	0.04078	0.66932	0.38447	0.381
Mof_C 	C 	0.06277	0.68362	0.39931	-0.155
Mof_C 	C 	0.0736	0.7118	0.3894	0.074
Mof_C 	C 	0.9861	0.7136	0.2566	0.017
Mof_C 	C 	0.9769	0.7001	0.2867	0.025
Mof_O 	O 	0.03026	0.68039	0.36132	-0.386
Mof_C 	C 	0.9914	0.691	0.2766	0.023
Mof_O 	O 	0.52992	0.14617	0.39541	-0.396
Mof_C 	C 	0.54078	0.16932	0.38447	0.381
Mof_C 	C 	0.56277	0.18362	0.39931	-0.155
Mof_C 	C 	0.5736	0.2118	0.3894	0.075
Mof_C 	C 	0.4861	0.2136	0.2566	-0.002
Mof_C 	C 	0.4769	0.2001	0.2867	0.024
Mof_O 	O 	0.53026	0.18039	0.36132	-0.385
Mof_C 	C 	0.4914	0.191	0.2766	0.022
Mof_O 	O 	0.52992	0.64617	0.89541	-0.396
Mof_C 	C 	0.54078	0.66932	0.88447	0.381
Mof_C 	C 	0.56277	0.68362	0.89931	-0.155
Mof_C 	C 	0.5736	0.7118	0.8894	0.075
Mof_C 	C 	0.4861	0.7136	0.7566	-0.002
Mof_C 	C 	0.4769	0.7001	0.7867	0.024
Mof_O 	O 	0.53026	0.68039	0.86132	-0.385
Mof_C 	C 	0.4914	0.691	0.7766	0.022
Mof_O 	O 	0.85383	0.89541	0.97008	-0.395
Mof_C 	C 	0.83068	0.88447	0.95922	0.381
Mof_C 	C 	0.81638	0.89931	0.93723	-0.155
Mof_C 	C 	0.7882	0.8894	0.9264	0.075
Mof_C 	C 	0.7864	0.7566	0.0139	-0.019
Mof_C 	C 	0.7999	0.7867	0.0231	0.023
Mof_O 	O 	0.81961	0.86132	0.96974	-0.384
Mof_C 	C 	0.809	0.7766	0.0086	0.021
Mof_O 	O 	0.85383	0.39541	0.47008	-0.396
Mof_C 	C 	0.83068	0.38447	0.45922	0.381
Mof_C 	C 	0.81638	0.39931	0.43723	-0.155
Mof_C 	C 	0.7882	0.3894	0.4264	0.075
Mof_C 	C 	0.7864	0.2566	0.5139	-0.002
Mof_C 	C 	0.7999	0.2867	0.5231	0.024
Mof_O 	O 	0.81961	0.36132	0.46974	-0.385
Mof_C 	C 	0.809	0.2766	0.5086	0.022
Mof_O 	O 	0.35383	0.89541	0.47008	-0.396
Mof_C 	C 	0.33068	0.88447	0.45922	0.381
Mof_C 	C 	0.31638	0.89931	0.43723	-0.155
Mof_C 	C 	0.2882	0.8894	0.4264	0.075
Mof_C 	C 	0.2864	0.7566	0.5139	-0.002
Mof_C 	C 	0.2999	0.7867	0.5231	0.024
Mof_O 	O 	0.31961	0.86132	0.46974	-0.385
Mof_C 	C 	0.309	0.7766	0.5086	0.022
Mof_O 	O 	0.35383	0.39541	0.97008	-0.395
Mof_C 	C 	0.33068	0.38447	0.95922	0.381
Mof_C 	C 	0.31638	0.39931	0.93723	-0.155
Mof_C 	C 	0.2882	0.3894	0.9264	0.075
Mof_C 	C 	0.2864	0.2566	0.0139	-0.019
Mof_C 	C 	0.2999	0.2867	0.0231	0.023
Mof_O 	O 	0.31961	0.36132	0.96974	-0.384
Mof_C 	C 	0.309	0.2766	0.0086	0.021
Mof_O 	O 	0.85383	0.10459	0.02992	-0.397
Mof_C 	C 	0.83068	0.11553	0.04078	0.381
Mof_C 	C 	0.81638	0.10069	0.06277	-0.155
Mof_C 	C 	0.7882	0.1106	0.0736	0.074
Mof_C 	C 	0.7864	0.2434	0.9861	0.017
Mof_C 	C 	0.7999	0.2133	0.9769	0.025
Mof_O 	O 	0.81961	0.13868	0.03026	-0.386
Mof_C 	C 	0.809	0.2234	0.9914	0.023
Mof_O 	O 	0.85383	0.60459	0.52992	-0.396
Mof_C 	C 	0.83068	0.61553	0.54078	0.381
Mof_C 	C 	0.81638	0.60069	0.56277	-0.155
Mof_C 	C 	0.7882	0.6106	0.5736	0.075
Mof_C 	C 	0.7864	0.7434	0.4861	-0.002
Mof_C 	C 	0.7999	0.7133	0.4769	0.024
Mof_O 	O 	0.81961	0.63868	0.53026	-0.385
Mof_C 	C 	0.809	0.7234	0.4914	0.022
Mof_O 	O 	0.35383	0.10459	0.52992	-0.396
Mof_C 	C 	0.33068	0.11553	0.54078	0.381
Mof_C 	C 	0.31638	0.10069	0.56277	-0.155
Mof_C 	C 	0.2882	0.1106	0.5736	0.075
Mof_C 	C 	0.2864	0.2434	0.4861	-0.002
Mof_C 	C 	0.2999	0.2133	0.4769	0.024
Mof_O 	O 	0.31961	0.13868	0.53026	-0.385
Mof_C 	C 	0.309	0.2234	0.4914	0.022
Mof_O 	O 	0.35383	0.60459	0.02992	-0.397
Mof_C 	C 	0.33068	0.61553	0.04078	0.381
Mof_C 	C 	0.31638	0.60069	0.06277	-0.155
Mof_C 	C 	0.2882	0.6106	0.0736	0.074
Mof_C 	C 	0.2864	0.7434	0.9861	0.017
Mof_C 	C 	0.2999	0.7133	0.9769	0.025
Mof_O 	O 	0.31961	0.63868	0.03026	-0.386
Mof_C 	C 	0.309	0.7234	0.9914	0.023
Mof_O 	O 	0.14617	0.89541	0.02992	-0.397
Mof_C 	C 	0.16932	0.88447	0.04078	0.381
Mof_C 	C 	0.18362	0.89931	0.06277	-0.155
Mof_C 	C 	0.2118	0.8894	0.0736	0.075
Mof_C 	C 	0.2136	0.7566	0.9861	0.017
Mof_C 	C 	0.2001	0.7867	0.9769	0.025
Mof_O 	O 	0.18039	0.86132	0.03026	-0.386
Mof_C 	C 	0.191	0.7766	0.9914	0.023
Mof_O 	O 	0.14617	0.39541	0.52992	-0.396
Mof_C 	C 	0.16932	0.38447	0.54078	0.381
Mof_C 	C 	0.18362	0.39931	0.56277	-0.155
Mof_C 	C 	0.2118	0.3894	0.5736	0.075
Mof_C 	C 	0.2136	0.2566	0.4861	-0.002
Mof_C 	C 	0.2001	0.2867	0.4769	0.024
Mof_O 	O 	0.18039	0.36132	0.53026	-0.385
Mof_C 	C 	0.191	0.2766	0.4914	0.022
Mof_O 	O 	0.64617	0.89541	0.52992	-0.396
Mof_C 	C 	0.66932	0.88447	0.54078	0.381
Mof_C 	C 	0.68362	0.89931	0.56277	-0.155
Mof_C 	C 	0.7118	0.8894	0.5736	0.075
Mof_C 	C 	0.7136	0.7566	0.4861	-0.002
Mof_C 	C 	0.7001	0.7867	0.4769	0.024
Mof_O 	O 	0.68039	0.86132	0.53026	-0.385
Mof_C 	C 	0.691	0.7766	0.4914	0.022
Mof_O 	O 	0.64617	0.39541	0.02992	-0.397
Mof_C 	C 	0.66932	0.38447	0.04078	0.381
Mof_C 	C 	0.68362	0.39931	0.06277	-0.155
Mof_C 	C 	0.7118	0.3894	0.0736	0.074
Mof_C 	C 	0.7136	0.2566	0.9861	0.017
Mof_C 	C 	0.7001	0.2867	0.9769	0.025
Mof_O 	O 	0.68039	0.36132	0.03026	-0.386
Mof_C 	C 	0.691	0.2766	0.9914	0.023
Mof_O 	O 	0.14617	0.10459	0.97008	-0.395
Mof_C 	C 	0.16932	0.11553	0.95922	0.381
Mof_C 	C 	0.18362	0.10069	0.93723	-0.155
Mof_C 	C 	0.2118	0.1106	0.9264	0.075
Mof_C 	C 	0.2136	0.2434	0.0139	-0.019
Mof_C 	C 	0.2001	0.2133	0.0231	0.023
Mof_O 	O 	0.18039	0.13868	0.96974	-0.384
Mof_C 	C 	0.191	0.2234	0.0086	0.021
Mof_O 	O 	0.14617	0.60459	0.47008	-0.396
Mof_C 	C 	0.16932	0.61553	0.45922	0.381
Mof_C 	C 	0.18362	0.60069	0.43723	-0.155
Mof_C 	C 	0.2118	0.6106	0.4264	0.075
Mof_C 	C 	0.2136	0.7434	0.5139	-0.002
Mof_C 	C 	0.2001	0.7133	0.5231	0.024
Mof_O 	O 	0.18039	0.63868	0.46974	-0.385
Mof_C 	C 	0.191	0.7234	0.5086	0.022
Mof_O 	O 	0.64617	0.10459	0.47008	-0.396
Mof_C 	C 	0.66932	0.11553	0.45922	0.381
Mof_C 	C 	0.68362	0.10069	0.43723	-0.155
Mof_C 	C 	0.7118	0.1106	0.4264	0.075
Mof_C 	C 	0.7136	0.2434	0.5139	-0.002
Mof_C 	C 	0.7001	0.2133	0.5231	0.024
Mof_O 	O 	0.68039	0.13868	0.46974	-0.385
Mof_C 	C 	0.691	0.2234	0.5086	0.022
Mof_O 	O 	0.64617	0.60459	0.97008	-0.395
Mof_C 	C 	0.66932	0.61553	0.95922	0.381
Mof_C 	C 	0.68362	0.60069	0.93723	-0.155
Mof_C 	C 	0.7118	0.6106	0.9264	0.075
Mof_C 	C 	0.7136	0.7434	0.0139	-0.019
Mof_C 	C 	0.7001	0.7133	0.0231	0.023
Mof_O 	O 	0.68039	0.63868	0.96974	-0.384
Mof_C 	C 	0.691	0.7234	0.0086	0.021
Mof_Cu	Cu	4.59489e-34	0.12255	0.12255	0.91
Mof_Cu	Cu	2.66571e-33	0.16299	0.16299	0.92
Mof_N 	N 	7.35932e-34	0.19628	0.19628	-0.192
Mof_C 	C 	5.00146e-33	0.23798	0.23798	0.007
Mof_Cu	Cu	2.33419e-33	0.62255	0.62255	0.91
Mof_Cu	Cu	-1.39509e-32	0.66299	0.66299	0.92
Mof_N 	N 	2.61063e-33	0.69628	0.69628	-0.192
Mof_C 	C 	1.92037e-32	0.73798	0.73798	0.007
Mof_Cu	Cu	0.5	0.12255	0.62255	0.911
Mof_Cu	Cu	0.5	0.16299	0.66299	0.921
Mof_N 	N 	0.5	0.19628	0.69628	-0.191
Mof_C 	C 	0.5	0.23798	0.73798	0.011
Mof_Cu	Cu	0.5	0.62255	0.12255	0.911
Mof_Cu	Cu	0.5	0.66299	0.16299	0.921
Mof_N 	N 	0.5	0.69628	0.19628	-0.191
Mof_C 	C 	0.5	0.73798	0.23798	0.011
Mof_Cu	Cu	-1.5951e-33	0.87745	0.12255	0.91
Mof_Cu	Cu	-3.49807e-33	0.83701	0.16299	0.92
Mof_N 	N 	-5.42784e-33	0.80372	0.19628	-0.192
Mof_C 	C 	-3.2169e-33	0.76202	0.23798	0.007
Mof_Cu	Cu	2.33419e-33	0.37745	0.62255	0.91
Mof_Cu	Cu	-1.39509e-32	0.33701	0.66299	0.92
Mof_N 	N 	-5.60773e-33	0.30372	0.69628	-0.192
Mof_C 	C 	2.76698e-33	0.26202	0.73798	0.007
Mof_Cu	Cu	0.5	0.87745	0.62255	0.911
Mof_Cu	Cu	0.5	0.83701	0.66299	0.921
Mof_N 	N 	0.5	0.80372	0.69628	-0.191
Mof_C 	C 	0.5	0.76202	0.73798	0.011
Mof_Cu	Cu	0.5	0.37745	0.12255	0.911
Mof_Cu	Cu	0.5	0.33701	0.16299	0.921
Mof_N 	N 	0.5	0.30372	0.19628	-0.191
Mof_C 	C 	0.5	0.26202	0.23798	0.011
Mof_Cu	Cu	-4.92845e-33	0.12255	0.87745	0.91
Mof_Cu	Cu	-5.08008e-33	0.16299	0.83701	0.92
Mof_N 	N 	-5.20489e-33	0.19628	0.80372	-0.192
Mof_C 	C 	-5.36124e-33	0.23798	0.76202	0.007
Mof_Cu	Cu	-2.69397e-33	0.62255	0.37745	0.91
Mof_Cu	Cu	-1.1064e-32	0.66299	0.33701	0.92
Mof_N 	N 	-2.97041e-33	0.69628	0.30372	-0.192
Mof_C 	C 	-1.07217e-33	0.73798	0.26202	0.007
Mof_Cu	Cu	0.5	0.12255	0.37745	0.911
Mof_Cu	Cu	0.5	0.16299	0.33701	0.921
Mof_N 	N 	0.5	0.19628	0.30372	-0.191
Mof_C 	C 	0.5	0.23798	0.26202	0.011
Mof_Cu	Cu	0.5	0.62255	0.87745	0.911
Mof_Cu	Cu	0.5	0.66299	0.83701	0.921
Mof_N 	N 	0.5	0.69628	0.80372	-0.191
Mof_C 	C 	0.5	0.73798	0.76202	0.011
Mof_Cu	Cu	1.97266e-32	0.87745	0.87745	0.91
Mof_Cu	Cu	3.13828e-33	0.83701	0.83701	0.92
Mof_N 	N 	3.01347e-33	0.80372	0.80372	-0.192
Mof_C 	C 	2.85712e-33	0.76202	0.76202	0.007
Mof_Cu	Cu	9.63357e-33	0.37745	0.37745	0.91
Mof_Cu	Cu	1.26359e-33	0.33701	0.33701	0.92
Mof_N 	N 	1.13877e-33	0.30372	0.30372	-0.192
Mof_C 	C 	9.82418e-34	0.26202	0.26202	0.007
Mof_Cu	Cu	0.5	0.87745	0.37745	0.911
Mof_Cu	Cu	0.5	0.83701	0.33701	0.921
Mof_N 	N 	0.5	0.80372	0.30372	-0.191
Mof_C 	C 	0.5	0.76202	0.26202	0.011
Mof_Cu	Cu	0.5	0.37745	0.87745	0.911
Mof_Cu	Cu	0.5	0.33701	0.83701	0.921
Mof_N 	N 	0.5	0.30372	0.80372	-0.191
Mof_C 	C 	0.5	0.26202	0.76202	0.011
Mof_Cu	Cu	0.12255	-1.0273e-33	0.12255	0.91
Mof_Cu	Cu	0.16299	0	0.16299	0.92
Mof_N 	N 	0.19628	-2.05459e-33	0.19628	-0.192
Mof_C 	C 	0.23798	0	0.23798	0.007
Mof_Cu	Cu	0.12255	0.5	0.62255	0.911
Mof_Cu	Cu	0.16299	0.5	0.66299	0.921
Mof_N 	N 	0.19628	0.5	0.69628	-0.191
Mof_C 	C 	0.23798	0.5	0.73798	0.011
Mof_Cu	Cu	0.62255	-8.21836e-33	0.62255	0.91
Mof_Cu	Cu	0.66299	-8.21836e-33	0.66299	0.92
Mof_N 	N 	0.69628	-8.21836e-33	0.69628	-0.192
Mof_C 	C 	0.73798	0	0.73798	0.007
Mof_Cu	Cu	0.62255	0.5	0.12255	0.911
Mof_Cu	Cu	0.66299	0.5	0.16299	0.921
Mof_N 	N 	0.69628	0.5	0.19628	-0.191
Mof_C 	C 	0.73798	0.5	0.23798	0.011
Mof_Cu	Cu	0.12255	0	0.87745	0.91
Mof_Cu	Cu	0.16299	-8.21836e-33	0.83701	0.92
Mof_N 	N 	0.19628	-8.21836e-33	0.80372	-0.192
Mof_C 	C 	0.23798	0	0.76202	0.007
Mof_Cu	Cu	0.12255	0.5	0.37745	0.911
Mof_Cu	Cu	0.16299	0.5	0.33701	0.921
Mof_N 	N 	0.19628	0.5	0.30372	-0.191
Mof_C 	C 	0.23798	0.5	0.26202	0.011
Mof_Cu	Cu	0.62255	4.10918e-33	0.37745	0.91
Mof_Cu	Cu	0.66299	-4.10918e-33	0.33701	0.92
Mof_N 	N 	0.69628	-4.10918e-33	0.30372	-0.192
Mof_C 	C 	0.73798	-2.05459e-33	0.26202	0.007
Mof_Cu	Cu	0.62255	0.5	0.87745	0.911
Mof_Cu	Cu	0.66299	0.5	0.83701	0.921
Mof_N 	N 	0.69628	0.5	0.80372	-0.191
Mof_C 	C 	0.73798	0.5	0.76202	0.011
Mof_Cu	Cu	0.87745	-1.0273e-33	0.12255	0.91
Mof_Cu	Cu	0.83701	0	0.16299	0.92
Mof_N 	N 	0.80372	-2.05459e-33	0.19628	-0.192
Mof_C 	C 	0.76202	0	0.23798	0.007
Mof_Cu	Cu	0.87745	0.5	0.62255	0.911
Mof_Cu	Cu	0.83701	0.5	0.66299	0.921
Mof_N 	N 	0.80372	0.5	0.69628	-0.191
Mof_C 	C 	0.76202	0.5	0.73798	0.011
Mof_Cu	Cu	0.37745	-8.21836e-33	0.62255	0.91
Mof_Cu	Cu	0.33701	-8.21836e-33	0.66299	0.92
Mof_N 	N 	0.30372	-8.21836e-33	0.69628	-0.192
Mof_C 	C 	0.26202	0	0.73798	0.007
Mof_Cu	Cu	0.37745	0.5	0.12255	0.911
Mof_Cu	Cu	0.33701	0.5	0.16299	0.921
Mof_N 	N 	0.30372	0.5	0.19628	-0.191
Mof_C 	C 	0.26202	0.5	0.23798	0.011
Mof_Cu	Cu	0.87745	0	0.87745	0.91
Mof_Cu	Cu	0.83701	-8.21836e-33	0.83701	0.92
Mof_N 	N 	0.80372	-8.21836e-33	0.80372	-0.192
Mof_C 	C 	0.76202	0	0.76202	0.007
Mof_Cu	Cu	0.87745	0.5	0.37745	0.911
Mof_Cu	Cu	0.83701	0.5	0.33701	0.921
Mof_N 	N 	0.80372	0.5	0.30372	-0.191
Mof_C 	C 	0.76202	0.5	0.26202	0.011
Mof_Cu	Cu	0.37745	4.10918e-33	0.37745	0.91
Mof_Cu	Cu	0.33701	-4.10918e-33	0.33701	0.92
Mof_N 	N 	0.30372	-4.10918e-33	0.30372	-0.192
Mof_C 	C 	0.26202	-2.05459e-33	0.26202	0.007
Mof_Cu	Cu	0.37745	0.5	0.87745	0.911
Mof_Cu	Cu	0.33701	0.5	0.83701	0.921
Mof_N 	N 	0.30372	0.5	0.80372	-0.191
Mof_C 	C 	0.26202	0.5	0.76202	0.011
Mof_Cu	Cu	0.12255	0.12255	-0	0.91
Mof_Cu	Cu	0.16299	0.16299	-0	0.92
Mof_N 	N 	0.19628	0.19628	-0	-0.192
Mof_C 	C 	0.23798	0.23798	-0	0.007
Mof_Cu	Cu	0.12255	0.62255	0.5	0.911
Mof_Cu	Cu	0.16299	0.66299	0.5	0.921
Mof_N 	N 	0.19628	0.69628	0.5	-0.191
Mof_C 	C 	0.23798	0.73798	0.5	0.011
Mof_Cu	Cu	0.62255	0.12255	0.5	0.911
Mof_Cu	Cu	0.66299	0.16299	0.5	0.921
Mof_N 	N 	0.69628	0.19628	0.5	-0.191
Mof_C 	C 	0.73798	0.23798	0.5	0.011
Mof_Cu	Cu	0.62255	0.62255	-0	0.91
Mof_Cu	Cu	0.66299	0.66299	-0	0.92
Mof_N 	N 	0.69628	0.69628	-0	-0.192
Mof_C 	C 	0.73798	0.73798	-0	0.007
Mof_Cu	Cu	0.87745	0.12255	-0	0.91
Mof_Cu	Cu	0.83701	0.16299	-0	0.92
Mof_N 	N 	0.80372	0.19628	-0	-0.192
Mof_C 	C 	0.76202	0.23798	-0	0.007
Mof_Cu	Cu	0.87745	0.62255	0.5	0.911
Mof_Cu	Cu	0.83701	0.66299	0.5	0.921
Mof_N 	N 	0.80372	0.69628	0.5	-0.191
Mof_C 	C 	0.76202	0.73798	0.5	0.011
Mof_Cu	Cu	0.37745	0.12255	0.5	0.911
Mof_Cu	Cu	0.33701	0.16299	0.5	0.921
Mof_N 	N 	0.30372	0.19628	0.5	-0.191
Mof_C 	C 	0.26202	0.23798	0.5	0.011
Mof_Cu	Cu	0.37745	0.62255	-0	0.91
Mof_Cu	Cu	0.33701	0.66299	-0	0.92
Mof_N 	N 	0.30372	0.69628	-0	-0.192
Mof_C 	C 	0.26202	0.73798	-0	0.007
Mof_Cu	Cu	0.12255	0.87745	-0	0.91
Mof_Cu	Cu	0.16299	0.83701	-0	0.92
Mof_N 	N 	0.19628	0.80372	-0	-0.192
Mof_C 	C 	0.23798	0.76202	-0	0.007
Mof_Cu	Cu	0.12255	0.37745	0.5	0.911
Mof_Cu	Cu	0.16299	0.33701	0.5	0.921
Mof_N 	N 	0.19628	0.30372	0.5	-0.191
Mof_C 	C 	0.23798	0.26202	0.5	0.011
Mof_Cu	Cu	0.62255	0.87745	0.5	0.911
Mof_Cu	Cu	0.66299	0.83701	0.5	0.921
Mof_N 	N 	0.69628	0.80372	0.5	-0.191
Mof_C 	C 	0.73798	0.76202	0.5	0.011
Mof_Cu	Cu	0.62255	0.37745	-0	0.91
Mof_Cu	Cu	0.66299	0.33701	-0	0.92
Mof_N 	N 	0.69628	0.30372	-0	-0.192
Mof_C 	C 	0.73798	0.26202	-0	0.007
Mof_Cu	Cu	0.87745	0.87745	-0	0.91
Mof_Cu	Cu	0.83701	0.83701	-0	0.92
Mof_N 	N 	0.80372	0.80372	-0	-0.192
Mof_C 	C 	0.76202	0.76202	-0	0.007
Mof_Cu	Cu	0.87745	0.37745	0.5	0.911
Mof_Cu	Cu	0.83701	0.33701	0.5	0.921
Mof_N 	N 	0.80372	0.30372	0.5	-0.191
Mof_C 	C 	0.76202	0.26202	0.5	0.011
Mof_Cu	Cu	0.37745	0.87745	0.5	0.911
Mof_Cu	Cu	0.33701	0.83701	0.5	0.921
Mof_N 	N 	0.30372	0.80372	0.5	-0.191
Mof_C 	C 	0.26202	0.76202	0.5	0.011
Mof_Cu	Cu	0.37745	0.37745	-0	0.91
Mof_Cu	Cu	0.33701	0.33701	-0	0.92
Mof_N 	N 	0.30372	0.30372	-0	-0.192
Mof_C 	C 	0.26202	0.26202	-0	0.007
Mof_C 	C 	0.92302	0.07698	0.1707	0.128
Mof_C 	C 	0.8954	0.1046	0.2178	0.027
Mof_N 	N 	0.8813	0.1187	0.2414	-0.06
Mof_C 	C 	0.91	0.09	0.2281	0.013
Mof_N 	N 	0.9029	0.0971	0.2574	-0.058
Mof_C 	C 	0.92302	0.57698	0.6707	0.129
Mof_C 	C 	0.8954	0.6046	0.7178	0.027
Mof_N 	N 	0.8813	0.6187	0.7414	-0.06
Mof_C 	C 	0.91	0.59	0.7281	0.013
Mof_N 	N 	0.9029	0.5971	0.7574	-0.058
Mof_C 	C 	0.42302	0.07698	0.6707	0.128
Mof_C 	C 	0.3954	0.1046	0.7178	0.027
Mof_N 	N 	0.3813	0.1187	0.7414	-0.06
Mof_C 	C 	0.41	0.09	0.7281	0.012
Mof_N 	N 	0.4029	0.0971	0.7574	-0.058
Mof_C 	C 	0.42302	0.57698	0.1707	0.128
Mof_C 	C 	0.3954	0.6046	0.2178	0.027
Mof_N 	N 	0.3813	0.6187	0.2414	-0.06
Mof_C 	C 	0.41	0.59	0.2281	0.013
Mof_N 	N 	0.4029	0.5971	0.2574	-0.058
Mof_C 	C 	0.07698	0.92302	0.1707	0.128
Mof_C 	C 	0.1046	0.8954	0.2178	0.027
Mof_N 	N 	0.1187	0.8813	0.2414	-0.06
Mof_C 	C 	0.09	0.91	0.2281	0.013
Mof_N 	N 	0.0971	0.9029	0.2574	-0.058
Mof_C 	C 	0.07698	0.42302	0.6707	0.128
Mof_C 	C 	0.1046	0.3954	0.7178	0.027
Mof_N 	N 	0.1187	0.3813	0.7414	-0.06
Mof_C 	C 	0.09	0.41	0.7281	0.012
Mof_N 	N 	0.0971	0.4029	0.7574	-0.058
Mof_C 	C 	0.57698	0.92302	0.6707	0.129
Mof_C 	C 	0.6046	0.8954	0.7178	0.027
Mof_N 	N 	0.6187	0.8813	0.7414	-0.06
Mof_C 	C 	0.59	0.91	0.7281	0.013
Mof_N 	N 	0.5971	0.9029	0.7574	-0.058
Mof_C 	C 	0.57698	0.42302	0.1707	0.128
Mof_C 	C 	0.6046	0.3954	0.2178	0.027
Mof_N 	N 	0.6187	0.3813	0.2414	-0.06
Mof_C 	C 	0.59	0.41	0.2281	0.013
Mof_N 	N 	0.5971	0.4029	0.2574	-0.058
Mof_C 	C 	0.07698	0.07698	0.8293	0.128
Mof_C 	C 	0.1046	0.1046	0.7822	0.028
Mof_N 	N 	0.1187	0.1187	0.7586	-0.06
Mof_C 	C 	0.09	0.09	0.7719	0.012
Mof_N 	N 	0.0971	0.0971	0.7426	-0.059
Mof_C 	C 	0.07698	0.57698	0.3293	0.128
Mof_C 	C 	0.1046	0.6046	0.2822	0.028
Mof_N 	N 	0.1187	0.6187	0.2586	-0.06
Mof_C 	C 	0.09	0.59	0.2719	0.012
Mof_N 	N 	0.0971	0.5971	0.2426	-0.058
Mof_C 	C 	0.57698	0.07698	0.3293	0.128
Mof_C 	C 	0.6046	0.1046	0.2822	0.028
Mof_N 	N 	0.6187	0.1187	0.2586	-0.06
Mof_C 	C 	0.59	0.09	0.2719	0.012
Mof_N 	N 	0.5971	0.0971	0.2426	-0.058
Mof_C 	C 	0.57698	0.57698	0.8293	0.128
Mof_C 	C 	0.6046	0.6046	0.7822	0.027
Mof_N 	N 	0.6187	0.6187	0.7586	-0.06
Mof_C 	C 	0.59	0.59	0.7719	0.013
Mof_N 	N 	0.5971	0.5971	0.7426	-0.058
Mof_C 	C 	0.92302	0.92302	0.8293	0.129
Mof_C 	C 	0.8954	0.8954	0.7822	0.027
Mof_N 	N 	0.8813	0.8813	0.7586	-0.06
Mof_C 	C 	0.91	0.91	0.7719	0.013
Mof_N 	N 	0.9029	0.9029	0.7426	-0.058
Mof_C 	C 	0.92302	0.42302	0.3293	0.129
Mof_C 	C 	0.8954	0.3954	0.2822	0.027
Mof_N 	N 	0.8813	0.3813	0.2586	-0.06
Mof_C 	C 	0.91	0.41	0.2719	0.013
Mof_N 	N 	0.9029	0.4029	0.2426	-0.058
Mof_C 	C 	0.42302	0.92302	0.3293	0.129
Mof_C 	C 	0.3954	0.8954	0.2822	0.027
Mof_N 	N 	0.3813	0.8813	0.2586	-0.06
Mof_C 	C 	0.41	0.91	0.2719	0.013
Mof_N 	N 	0.4029	0.9029	0.2426	-0.058
Mof_C 	C 	0.42302	0.42302	0.8293	0.128
Mof_C 	C 	0.3954	0.3954	0.7822	0.027
Mof_N 	N 	0.3813	0.3813	0.7586	-0.06
Mof_C 	C 	0.41	0.41	0.7719	0.013
Mof_N 	N 	0.4029	0.4029	0.7426	-0.058
Mof_C 	C 	0.1707	0.92302	0.07698	0.128
Mof_C 	C 	0.2178	0.8954	0.1046	0.027
Mof_N 	N 	0.2414	0.8813	0.1187	-0.06
Mof_C 	C 	0.2281	0.91	0.09	0.013
Mof_N 	N 	0.2574	0.9029	0.0971	-0.058
Mof_C 	C 	0.1707	0.42302	0.57698	0.128
Mof_C 	C 	0.2178	0.3954	0.6046	0.027
Mof_N 	N 	0.2414	0.3813	0.6187	-0.06
Mof_C 	C 	0.2281	0.41	0.59	0.013
Mof_N 	N 	0.2574	0.4029	0.5971	-0.058
Mof_C 	C 	0.6707	0.92302	0.57698	0.129
Mof_C 	C 	0.7178	0.8954	0.6046	0.027
Mof_N 	N 	0.7414	0.8813	0.6187	-0.06
Mof_C 	C 	0.7281	0.91	0.59	0.013
Mof_N 	N 	0.7574	0.9029	0.5971	-0.058
Mof_C 	C 	0.6707	0.42302	0.07698	0.128
Mof_C 	C 	0.7178	0.3954	0.1046	0.027
Mof_N 	N 	0.7414	0.3813	0.1187	-0.06
Mof_C 	C 	0.7281	0.41	0.09	0.012
Mof_N 	N 	0.7574	0.4029	0.0971	-0.058
Mof_C 	C 	0.1707	0.07698	0.92302	0.128
Mof_C 	C 	0.2178	0.1046	0.8954	0.027
Mof_N 	N 	0.2414	0.1187	0.8813	-0.06
Mof_C 	C 	0.2281	0.09	0.91	0.013
Mof_N 	N 	0.2574	0.0971	0.9029	-0.058
Mof_C 	C 	0.1707	0.57698	0.42302	0.128
Mof_C 	C 	0.2178	0.6046	0.3954	0.027
Mof_N 	N 	0.2414	0.6187	0.3813	-0.06
Mof_C 	C 	0.2281	0.59	0.41	0.013
Mof_N 	N 	0.2574	0.5971	0.4029	-0.058
Mof_C 	C 	0.6707	0.07698	0.42302	0.128
Mof_C 	C 	0.7178	0.1046	0.3954	0.027
Mof_N 	N 	0.7414	0.1187	0.3813	-0.06
Mof_C 	C 	0.7281	0.09	0.41	0.012
Mof_N 	N 	0.7574	0.0971	0.4029	-0.058
Mof_C 	C 	0.6707	0.57698	0.92302	0.129
Mof_C 	C 	0.7178	0.6046	0.8954	0.027
Mof_N 	N 	0.7414	0.6187	0.8813	-0.06
Mof_C 	C 	0.7281	0.59	0.91	0.013
Mof_N 	N 	0.7574	0.5971	0.9029	-0.058
Mof_C 	C 	0.8293	0.07698	0.07698	0.128
Mof_C 	C 	0.7822	0.1046	0.1046	0.028
Mof_N 	N 	0.7586	0.1187	0.1187	-0.06
Mof_C 	C 	0.7719	0.09	0.09	0.012
Mof_N 	N 	0.7426	0.0971	0.0971	-0.059
Mof_C 	C 	0.8293	0.57698	0.57698	0.128
Mof_C 	C 	0.7822	0.6046	0.6046	0.027
Mof_N 	N 	0.7586	0.6187	0.6187	-0.06
Mof_C 	C 	0.7719	0.59	0.59	0.013
Mof_N 	N 	0.7426	0.5971	0.5971	-0.058
Mof_C 	C 	0.3293	0.07698	0.57698	0.128
Mof_C 	C 	0.2822	0.1046	0.6046	0.028
Mof_N 	N 	0.2586	0.1187	0.6187	-0.06
Mof_C 	C 	0.2719	0.09	0.59	0.012
Mof_N 	N 	0.2426	0.0971	0.5971	-0.058
Mof_C 	C 	0.3293	0.57698	0.07698	0.128
Mof_C 	C 	0.2822	0.6046	0.1046	0.028
Mof_N 	N 	0.2586	0.6187	0.1187	-0.06
Mof_C 	C 	0.2719	0.59	0.09	0.012
Mof_N 	N 	0.2426	0.5971	0.0971	-0.058
Mof_C 	C 	0.8293	0.92302	0.92302	0.129
Mof_C 	C 	0.7822	0.8954	0.8954	0.027
Mof_N 	N 	0.7586	0.8813	0.8813	-0.06
Mof_C 	C 	0.7719	0.91	0.91	0.013
Mof_N 	N 	0.7426	0.9029	0.9029	-0.058
Mof_C 	C 	0.8293	0.42302	0.42302	0.128
Mof_C 	C 	0.7822	0.3954	0.3954	0.027
Mof_N 	N 	0.7586	0.3813	0.3813	-0.06
Mof_C 	C 	0.7719	0.41	0.41	0.013
Mof_N 	N 	0.7426	0.4029	0.4029	-0.058
Mof_C 	C 	0.3293	0.92302	0.42302	0.129
Mof_C 	C 	0.2822	0.8954	0.3954	0.027
Mof_N 	N 	0.2586	0.8813	0.3813	-0.06
Mof_C 	C 	0.2719	0.91	0.41	0.013
Mof_N 	N 	0.2426	0.9029	0.4029	-0.058
Mof_C 	C 	0.3293	0.42302	0.92302	0.129
Mof_C 	C 	0.2822	0.3954	0.8954	0.027
Mof_N 	N 	0.2586	0.3813	0.8813	-0.06
Mof_C 	C 	0.2719	0.41	0.91	0.013
Mof_N 	N 	0.2426	0.4029	0.9029	-0.058
Mof_C 	C 	0.07698	0.1707	0.92302	0.128
Mof_C 	C 	0.1046	0.2178	0.8954	0.027
Mof_N 	N 	0.1187	0.2414	0.8813	-0.06
Mof_C 	C 	0.09	0.2281	0.91	0.013
Mof_N 	N 	0.0971	0.2574	0.9029	-0.058
Mof_C 	C 	0.07698	0.6707	0.42302	0.128
Mof_C 	C 	0.1046	0.7178	0.3954	0.027
Mof_N 	N 	0.1187	0.7414	0.3813	-0.06
Mof_C 	C 	0.09	0.7281	0.41	0.012
Mof_N 	N 	0.0971	0.7574	0.4029	-0.058
Mof_C 	C 	0.57698	0.1707	0.42302	0.128
Mof_C 	C 	0.6046	0.2178	0.3954	0.027
Mof_N 	N 	0.6187	0.2414	0.3813	-0.06
Mof_C 	C 	0.59	0.2281	0.41	0.013
Mof_N 	N 	0.5971	0.2574	0.4029	-0.058
Mof_C 	C 	0.57698	0.6707	0.92302	0.129
Mof_C 	C 	0.6046	0.7178	0.8954	0.027
Mof_N 	N 	0.6187	0.7414	0.8813	-0.06
Mof_C 	C 	0.59	0.7281	0.91	0.013
Mof_N 	N 	0.5971	0.7574	0.9029	-0.058
Mof_C 	C 	0.92302	0.1707	0.07698	0.128
Mof_C 	C 	0.8954	0.2178	0.1046	0.027
Mof_N 	N 	0.8813	0.2414	0.1187	-0.06
Mof_C 	C 	0.91	0.2281	0.09	0.013
Mof_N 	N 	0.9029	0.2574	0.0971	-0.058
Mof_C 	C 	0.92302	0.6707	0.57698	0.129
Mof_C 	C 	0.8954	0.7178	0.6046	0.027
Mof_N 	N 	0.8813	0.7414	0.6187	-0.06
Mof_C 	C 	0.91	0.7281	0.59	0.013
Mof_N 	N 	0.9029	0.7574	0.5971	-0.058
Mof_C 	C 	0.42302	0.1707	0.57698	0.128
Mof_C 	C 	0.3954	0.2178	0.6046	0.027
Mof_N 	N 	0.3813	0.2414	0.6187	-0.06
Mof_C 	C 	0.41	0.2281	0.59	0.013
Mof_N 	N 	0.4029	0.2574	0.5971	-0.058
Mof_C 	C 	0.42302	0.6707	0.07698	0.128
Mof_C 	C 	0.3954	0.7178	0.1046	0.027
Mof_N 	N 	0.3813	0.7414	0.1187	-0.06
Mof_C 	C 	0.41	0.7281	0.09	0.012
Mof_N 	N 	0.4029	0.7574	0.0971	-0.058
Mof_C 	C 	0.07698	0.8293	0.07698	0.128
Mof_C 	C 	0.1046	0.7822	0.1046	0.028
Mof_N 	N 	0.1187	0.7586	0.1187	-0.06
Mof_C 	C 	0.09	0.7719	0.09	0.012
Mof_N 	N 	0.0971	0.7426	0.0971	-0.059
Mof_C 	C 	0.07698	0.3293	0.57698	0.128
Mof_C 	C 	0.1046	0.2822	0.6046	0.028
Mof_N 	N 	0.1187	0.2586	0.6187	-0.06
Mof_C 	C 	0.09	0.2719	0.59	0.012
Mof_N 	N 	0.0971	0.2426	0.5971	-0.058
Mof_C 	C 	0.57698	0.8293	0.57698	0.128
Mof_C 	C 	0.6046	0.7822	0.6046	0.027
Mof_N 	N 	0.6187	0.7586	0.6187	-0.06
Mof_C 	C 	0.59	0.7719	0.59	0.013
Mof_N 	N 	0.5971	0.7426	0.5971	-0.058
Mof_C 	C 	0.57698	0.3293	0.07698	0.128
Mof_C 	C 	0.6046	0.2822	0.1046	0.028
Mof_N 	N 	0.6187	0.2586	0.1187	-0.06
Mof_C 	C 	0.59	0.2719	0.09	0.012
Mof_N 	N 	0.5971	0.2426	0.0971	-0.058
Mof_C 	C 	0.92302	0.8293	0.92302	0.129
Mof_C 	C 	0.8954	0.7822	0.8954	0.027
Mof_N 	N 	0.8813	0.7586	0.8813	-0.06
Mof_C 	C 	0.91	0.7719	0.91	0.013
Mof_N 	N 	0.9029	0.7426	0.9029	-0.058
Mof_C 	C 	0.92302	0.3293	0.42302	0.129
Mof_C 	C 	0.8954	0.2822	0.3954	0.027
Mof_N 	N 	0.8813	0.2586	0.3813	-0.06
Mof_C 	C 	0.91	0.2719	0.41	0.013
Mof_N 	N 	0.9029	0.2426	0.4029	-0.058
Mof_C 	C 	0.42302	0.8293	0.42302	0.128
Mof_C 	C 	0.3954	0.7822	0.3954	0.027
Mof_N 	N 	0.3813	0.7586	0.3813	-0.06
Mof_C 	C 	0.41	0.7719	0.41	0.013
Mof_N 	N 	0.4029	0.7426	0.4029	-0.058
Mof_C 	C 	0.42302	0.3293	0.92302	0.129
Mof_C 	C 	0.3954	0.2822	0.8954	0.027
Mof_N 	N 	0.3813	0.2586	0.8813	-0.06
Mof_C 	C 	0.41	0.2719	0.91	0.013
Mof_N 	N 	0.4029	0.2426	0.9029	-0.058
Mof_C 	C 	0.07698	0.92302	0.8293	0.128
Mof_C 	C 	0.1046	0.8954	0.7822	0.027
Mof_N 	N 	0.1187	0.8813	0.7586	-0.06
Mof_C 	C 	0.09	0.91	0.7719	0.013
Mof_N 	N 	0.0971	0.9029	0.7426	-0.058
Mof_C 	C 	0.07698	0.42302	0.3293	0.128
Mof_C 	C 	0.1046	0.3954	0.2822	0.028
Mof_N 	N 	0.1187	0.3813	0.2586	-0.06
Mof_C 	C 	0.09	0.41	0.2719	0.012
Mof_N 	N 	0.0971	0.4029	0.2426	-0.058
Mof_C 	C 	0.57698	0.92302	0.3293	0.129
Mof_C 	C 	0.6046	0.8954	0.2822	0.027
Mof_N 	N 	0.6187	0.8813	0.2586	-0.06
Mof_C 	C 	0.59	0.91	0.2719	0.013
Mof_N 	N 	0.5971	0.9029	0.2426	-0.058
Mof_C 	C 	0.57698	0.42302	0.8293	0.128
Mof_C 	C 	0.6046	0.3954	0.7822	0.027
Mof_N 	N 	0.6187	0.3813	0.7586	-0.06
Mof_C 	C 	0.59	0.41	0.7719	0.013
Mof_N 	N 	0.5971	0.4029	0.7426	-0.058
Mof_C 	C 	0.92302	0.07698	0.8293	0.128
Mof_C 	C 	0.8954	0.1046	0.7822	0.027
Mof_N 	N 	0.8813	0.1187	0.7586	-0.06
Mof_C 	C 	0.91	0.09	0.7719	0.013
Mof_N 	N 	0.9029	0.0971	0.7426	-0.058
Mof_C 	C 	0.92302	0.57698	0.3293	0.129
Mof_C 	C 	0.8954	0.6046	0.2822	0.027
Mof_N 	N 	0.8813	0.6187	0.2586	-0.06
Mof_C 	C 	0.91	0.59	0.2719	0.013
Mof_N 	N 	0.9029	0.5971	0.2426	-0.058
Mof_C 	C 	0.42302	0.07698	0.3293	0.128
Mof_C 	C 	0.3954	0.1046	0.2822	0.028
Mof_N 	N 	0.3813	0.1187	0.2586	-0.06
Mof_C 	C 	0.41	0.09	0.2719	0.012
Mof_N 	N 	0.4029	0.0971	0.2426	-0.058
Mof_C 	C 	0.42302	0.57698	0.8293	0.128
Mof_C 	C 	0.3954	0.6046	0.7822	0.027
Mof_N 	N 	0.3813	0.6187	0.7586	-0.06
Mof_C 	C 	0.41	0.59	0.7719	0.013
Mof_N 	N 	0.4029	0.5971	0.7426	-0.058
Mof_C 	C 	0.07698	0.07698	0.1707	0.128
Mof_C 	C 	0.1046	0.1046	0.2178	0.028
Mof_N 	N 	0.1187	0.1187	0.2414	-0.06
Mof_C 	C 	0.09	0.09	0.2281	0.012
Mof_N 	N 	0.0971	0.0971	0.2574	-0.059
Mof_C 	C 	0.07698	0.57698	0.6707	0.128
Mof_C 	C 	0.1046	0.6046	0.7178	0.027
Mof_N 	N 	0.1187	0.6187	0.7414	-0.06
Mof_C 	C 	0.09	0.59	0.7281	0.012
Mof_N 	N 	0.0971	0.5971	0.7574	-0.058
Mof_C 	C 	0.57698	0.07698	0.6707	0.128
Mof_C 	C 	0.6046	0.1046	0.7178	0.027
Mof_N 	N 	0.6187	0.1187	0.7414	-0.06
Mof_C 	C 	0.59	0.09	0.7281	0.012
Mof_N 	N 	0.5971	0.0971	0.7574	-0.058
Mof_C 	C 	0.57698	0.57698	0.1707	0.128
Mof_C 	C 	0.6046	0.6046	0.2178	0.027
Mof_N 	N 	0.6187	0.6187	0.2414	-0.06
Mof_C 	C 	0.59	0.59	0.2281	0.013
Mof_N 	N 	0.5971	0.5971	0.2574	-0.058
Mof_C 	C 	0.92302	0.92302	0.1707	0.129
Mof_C 	C 	0.8954	0.8954	0.2178	0.027
Mof_N 	N 	0.8813	0.8813	0.2414	-0.06
Mof_C 	C 	0.91	0.91	0.2281	0.013
Mof_N 	N 	0.9029	0.9029	0.2574	-0.058
Mof_C 	C 	0.92302	0.42302	0.6707	0.129
Mof_C 	C 	0.8954	0.3954	0.7178	0.027
Mof_N 	N 	0.8813	0.3813	0.7414	-0.06
Mof_C 	C 	0.91	0.41	0.7281	0.013
Mof_N 	N 	0.9029	0.4029	0.7574	-0.058
Mof_C 	C 	0.42302	0.92302	0.6707	0.129
Mof_C 	C 	0.3954	0.8954	0.7178	0.027
Mof_N 	N 	0.3813	0.8813	0.7414	-0.06
Mof_C 	C 	0.41	0.91	0.7281	0.013
Mof_N 	N 	0.4029	0.9029	0.7574	-0.058
Mof_C 	C 	0.42302	0.42302	0.1707	0.128
Mof_C 	C 	0.3954	0.3954	0.2178	0.027
Mof_N 	N 	0.3813	0.3813	0.2414	-0.06
Mof_C 	C 	0.41	0.41	0.2281	0.013
Mof_N 	N 	0.4029	0.4029	0.2574	-0.058
Mof_C 	C 	0.92302	0.1707	0.92302	0.129
Mof_C 	C 	0.8954	0.2178	0.8954	0.027
Mof_N 	N 	0.8813	0.2414	0.8813	-0.06
Mof_C 	C 	0.91	0.2281	0.91	0.013
Mof_N 	N 	0.9029	0.2574	0.9029	-0.058
Mof_C 	C 	0.92302	0.6707	0.42302	0.129
Mof_C 	C 	0.8954	0.7178	0.3954	0.027
Mof_N 	N 	0.8813	0.7414	0.3813	-0.06
Mof_C 	C 	0.91	0.7281	0.41	0.013
Mof_N 	N 	0.9029	0.7574	0.4029	-0.058
Mof_C 	C 	0.42302	0.1707	0.42302	0.128
Mof_C 	C 	0.3954	0.2178	0.3954	0.027
Mof_N 	N 	0.3813	0.2414	0.3813	-0.06
Mof_C 	C 	0.41	0.2281	0.41	0.013
Mof_N 	N 	0.4029	0.2574	0.4029	-0.058
Mof_C 	C 	0.42302	0.6707	0.92302	0.129
Mof_C 	C 	0.3954	0.7178	0.8954	0.027
Mof_N 	N 	0.3813	0.7414	0.8813	-0.06
Mof_C 	C 	0.41	0.7281	0.91	0.013
Mof_N 	N 	0.4029	0.7574	0.9029	-0.058
Mof_C 	C 	0.07698	0.1707	0.07698	0.128
Mof_C 	C 	0.1046	0.2178	0.1046	0.028
Mof_N 	N 	0.1187	0.2414	0.1187	-0.06
Mof_C 	C 	0.09	0.2281	0.09	0.012
Mof_N 	N 	0.0971	0.2574	0.0971	-0.059
Mof_C 	C 	0.07698	0.6707	0.57698	0.128
Mof_C 	C 	0.1046	0.7178	0.6046	0.027
Mof_N 	N 	0.1187	0.7414	0.6187	-0.06
Mof_C 	C 	0.09	0.7281	0.59	0.012
Mof_N 	N 	0.0971	0.7574	0.5971	-0.058
Mof_C 	C 	0.57698	0.1707	0.57698	0.128
Mof_C 	C 	0.6046	0.2178	0.6046	0.027
Mof_N 	N 	0.6187	0.2414	0.6187	-0.06
Mof_C 	C 	0.59	0.2281	0.59	0.013
Mof_N 	N 	0.5971	0.2574	0.5971	-0.058
Mof_C 	C 	0.57698	0.6707	0.07698	0.128
Mof_C 	C 	0.6046	0.7178	0.1046	0.027
Mof_N 	N 	0.6187	0.7414	0.1187	-0.06
Mof_C 	C 	0.59	0.7281	0.09	0.012
Mof_N 	N 	0.5971	0.7574	0.0971	-0.058
Mof_C 	C 	0.07698	0.8293	0.92302	0.128
Mof_C 	C 	0.1046	0.7822	0.8954	0.027
Mof_N 	N 	0.1187	0.7586	0.8813	-0.06
Mof_C 	C 	0.09	0.7719	0.91	0.013
Mof_N 	N 	0.0971	0.7426	0.9029	-0.058
Mof_C 	C 	0.07698	0.3293	0.42302	0.128
Mof_C 	C 	0.1046	0.2822	0.3954	0.028
Mof_N 	N 	0.1187	0.2586	0.3813	-0.06
Mof_C 	C 	0.09	0.2719	0.41	0.012
Mof_N 	N 	0.0971	0.2426	0.4029	-0.058
Mof_C 	C 	0.57698	0.8293	0.42302	0.128
Mof_C 	C 	0.6046	0.7822	0.3954	0.027
Mof_N 	N 	0.6187	0.7586	0.3813	-0.06
Mof_C 	C 	0.59	0.7719	0.41	0.013
Mof_N 	N 	0.5971	0.7426	0.4029	-0.058
Mof_C 	C 	0.57698	0.3293	0.92302	0.129
Mof_C 	C 	0.6046	0.2822	0.8954	0.027
Mof_N 	N 	0.6187	0.2586	0.8813	-0.06
Mof_C 	C 	0.59	0.2719	0.91	0.013
Mof_N 	N 	0.5971	0.2426	0.9029	-0.058
Mof_C 	C 	0.92302	0.8293	0.07698	0.128
Mof_C 	C 	0.8954	0.7822	0.1046	0.027
Mof_N 	N 	0.8813	0.7586	0.1187	-0.06
Mof_C 	C 	0.91	0.7719	0.09	0.013
Mof_N 	N 	0.9029	0.7426	0.0971	-0.058
Mof_C 	C 	0.92302	0.3293	0.57698	0.129
Mof_C 	C 	0.8954	0.2822	0.6046	0.027
Mof_N 	N 	0.8813	0.2586	0.6187	-0.06
Mof_C 	C 	0.91	0.2719	0.59	0.013
Mof_N 	N 	0.9029	0.2426	0.5971	-0.058
Mof_C 	C 	0.42302	0.8293	0.57698	0.128
Mof_C 	C 	0.3954	0.7822	0.6046	0.027
Mof_N 	N 	0.3813	0.7586	0.6187	-0.06
Mof_C 	C 	0.41	0.7719	0.59	0.013
Mof_N 	N 	0.4029	0.7426	0.5971	-0.058
Mof_C 	C 	0.42302	0.3293	0.07698	0.128
Mof_C 	C 	0.3954	0.2822	0.1046	0.028
Mof_N 	N 	0.3813	0.2586	0.1187	-0.06
Mof_C 	C 	0.41	0.2719	0.09	0.012
Mof_N 	N 	0.4029	0.2426	0.0971	-0.058
Mof_C 	C 	0.1707	0.07698	0.07698	0.128
Mof_C 	C 	0.2178	0.1046	0.1046	0.028
Mof_N 	N 	0.2414	0.1187	0.1187	-0.06
Mof_C 	C 	0.2281	0.09	0.09	0.012
Mof_N 	N 	0.2574	0.0971	0.0971	-0.059
Mof_C 	C 	0.1707	0.57698	0.57698	0.128
Mof_C 	C 	0.2178	0.6046	0.6046	0.027
Mof_N 	N 	0.2414	0.6187	0.6187	-0.06
Mof_C 	C 	0.2281	0.59	0.59	0.013
Mof_N 	N 	0.2574	0.5971	0.5971	-0.058
Mof_C 	C 	0.6707	0.07698	0.57698	0.128
Mof_C 	C 	0.7178	0.1046	0.6046	0.027
Mof_N 	N 	0.7414	0.1187	0.6187	-0.06
Mof_C 	C 	0.7281	0.09	0.59	0.012
Mof_N 	N 	0.7574	0.0971	0.5971	-0.058
Mof_C 	C 	0.6707	0.57698	0.07698	0.128
Mof_C 	C 	0.7178	0.6046	0.1046	0.027
Mof_N 	N 	0.7414	0.6187	0.1187	-0.06
Mof_C 	C 	0.7281	0.59	0.09	0.012
Mof_N 	N 	0.7574	0.5971	0.0971	-0.058
Mof_C 	C 	0.1707	0.92302	0.92302	0.129
Mof_C 	C 	0.2178	0.8954	0.8954	0.027
Mof_N 	N 	0.2414	0.8813	0.8813	-0.06
Mof_C 	C 	0.2281	0.91	0.91	0.013
Mof_N 	N 	0.2574	0.9029	0.9029	-0.058
Mof_C 	C 	0.1707	0.42302	0.42302	0.128
Mof_C 	C 	0.2178	0.3954	0.3954	0.027
Mof_N 	N 	0.2414	0.3813	0.3813	-0.06
Mof_C 	C 	0.2281	0.41	0.41	0.013
Mof_N 	N 	0.2574	0.4029	0.4029	-0.058
Mof_C 	C 	0.6707	0.92302	0.42302	0.129
Mof_C 	C 	0.7178	0.8954	0.3954	0.027
Mof_N 	N 	0.7414	0.8813	0.3813	-0.06
Mof_C 	C 	0.7281	0.91	0.41	0.013
Mof_N 	N 	0.7574	0.9029	0.4029	-0.058
Mof_C 	C 	0.6707	0.42302	0.92302	0.129
Mof_C 	C 	0.7178	0.3954	0.8954	0.027
Mof_N 	N 	0.7414	0.3813	0.8813	-0.06
Mof_C 	C 	0.7281	0.41	0.91	0.013
Mof_N 	N 	0.7574	0.4029	0.9029	-0.058
Mof_C 	C 	0.8293	0.07698	0.92302	0.128
Mof_C 	C 	0.7822	0.1046	0.8954	0.027
Mof_N 	N 	0.7586	0.1187	0.8813	-0.06
Mof_C 	C 	0.7719	0.09	0.91	0.013
Mof_N 	N 	0.7426	0.0971	0.9029	-0.058
Mof_C 	C 	0.8293	0.57698	0.42302	0.128
Mof_C 	C 	0.7822	0.6046	0.3954	0.027
Mof_N 	N 	0.7586	0.6187	0.3813	-0.06
Mof_C 	C 	0.7719	0.59	0.41	0.013
Mof_N 	N 	0.7426	0.5971	0.4029	-0.058
Mof_C 	C 	0.3293	0.07698	0.42302	0.128
Mof_C 	C 	0.2822	0.1046	0.3954	0.028
Mof_N 	N 	0.2586	0.1187	0.3813	-0.06
Mof_C 	C 	0.2719	0.09	0.41	0.012
Mof_N 	N 	0.2426	0.0971	0.4029	-0.058
Mof_C 	C 	0.3293	0.57698	0.92302	0.129
Mof_C 	C 	0.2822	0.6046	0.8954	0.027
Mof_N 	N 	0.2586	0.6187	0.8813	-0.06
Mof_C 	C 	0.2719	0.59	0.91	0.013
Mof_N 	N 	0.2426	0.5971	0.9029	-0.058
Mof_C 	C 	0.8293	0.92302	0.07698	0.128
Mof_C 	C 	0.7822	0.8954	0.1046	0.027
Mof_N 	N 	0.7586	0.8813	0.1187	-0.06
Mof_C 	C 	0.7719	0.91	0.09	0.013
Mof_N 	N 	0.7426	0.9029	0.0971	-0.058
Mof_C 	C 	0.8293	0.42302	0.57698	0.128
Mof_C 	C 	0.7822	0.3954	0.6046	0.027
Mof_N 	N 	0.7586	0.3813	0.6187	-0.06
Mof_C 	C 	0.7719	0.41	0.59	0.013
Mof_N 	N 	0.7426	0.4029	0.5971	-0.058
Mof_C 	C 	0.3293	0.92302	0.57698	0.129
Mof_C 	C 	0.2822	0.8954	0.6046	0.027
Mof_N 	N 	0.2586	0.8813	0.6187	-0.06
Mof_C 	C 	0.2719	0.91	0.59	0.013
Mof_N 	N 	0.2426	0.9029	0.5971	-0.058
Mof_C 	C 	0.3293	0.42302	0.07698	0.128
Mof_C 	C 	0.2822	0.3954	0.1046	0.028
Mof_N 	N 	0.2586	0.3813	0.1187	-0.06
Mof_C 	C 	0.2719	0.41	0.09	0.012
Mof_N 	N 	0.2426	0.4029	0.0971	-0.058
Mof_C 	C 	0.0259	0.2279	0.2279	0.016
Mof_C 	C 	0.0259	0.7279	0.7279	0.016
Mof_C 	C 	0.5259	0.2279	0.7279	-0.003
Mof_C 	C 	0.5259	0.7279	0.2279	-0.003
Mof_C 	C 	0.9741	0.7721	0.2279	-0.022
Mof_C 	C 	0.9741	0.2721	0.7279	-0.022
Mof_C 	C 	0.4741	0.7721	0.7279	-0.003
Mof_C 	C 	0.4741	0.2721	0.2279	-0.003
Mof_C 	C 	0.9741	0.2279	0.7721	-0.022
Mof_C 	C 	0.9741	0.7279	0.2721	-0.022
Mof_C 	C 	0.4741	0.2279	0.2721	-0.003
Mof_C 	C 	0.4741	0.7279	0.7721	-0.003
Mof_C 	C 	0.0259	0.7721	0.7721	0.016
Mof_C 	C 	0.0259	0.2721	0.2721	0.016
Mof_C 	C 	0.5259	0.7721	0.2721	-0.003
Mof_C 	C 	0.5259	0.2721	0.7721	-0.003
Mof_C 	C 	0.2279	0.0259	0.2279	0.016
Mof_C 	C 	0.2279	0.5259	0.7279	-0.003
Mof_C 	C 	0.7279	0.0259	0.7279	0.016
Mof_C 	C 	0.7279	0.5259	0.2279	-0.003
Mof_C 	C 	0.2279	0.9741	0.7721	-0.022
Mof_C 	C 	0.2279	0.4741	0.2721	-0.003
Mof_C 	C 	0.7279	0.9741	0.2721	-0.022
Mof_C 	C 	0.7279	0.4741	0.7721	-0.003
Mof_C 	C 	0.7721	0.9741	0.2279	-0.022
Mof_C 	C 	0.7721	0.4741	0.7279	-0.003
Mof_C 	C 	0.2721	0.9741	0.7279	-0.022
Mof_C 	C 	0.2721	0.4741	0.2279	-0.003
Mof_C 	C 	0.7721	0.0259	0.7721	0.016
Mof_C 	C 	0.7721	0.5259	0.2721	-0.003
Mof_C 	C 	0.2721	0.0259	0.2721	0.016
Mof_C 	C 	0.2721	0.5259	0.7721	-0.003
Mof_C 	C 	0.2279	0.2279	0.0259	0.016
Mof_C 	C 	0.2279	0.7279	0.5259	-0.003
Mof_C 	C 	0.7279	0.2279	0.5259	-0.003
Mof_C 	C 	0.7279	0.7279	0.0259	0.016
Mof_C 	C 	0.7721	0.2279	0.9741	-0.022
Mof_C 	C 	0.7721	0.7279	0.4741	-0.003
Mof_C 	C 	0.2721	0.2279	0.4741	-0.003
Mof_C 	C 	0.2721	0.7279	0.9741	-0.022
Mof_C 	C 	0.2279	0.7721	0.9741	-0.022
Mof_C 	C 	0.2279	0.2721	0.4741	-0.003
Mof_C 	C 	0.7279	0.7721	0.4741	-0.003
Mof_C 	C 	0.7279	0.2721	0.9741	-0.022
Mof_C 	C 	0.7721	0.7721	0.0259	0.016
Mof_C 	C 	0.7721	0.2721	0.5259	-0.003
Mof_C 	C 	0.2721	0.7721	0.5259	-0.003
Mof_C 	C 	0.2721	0.2721	0.0259	0.016
Mof_C 	C 	0.2279	0.0259	0.7721	0.016
Mof_C 	C 	0.2279	0.5259	0.2721	-0.003
Mof_C 	C 	0.7279	0.0259	0.2721	0.016
Mof_C 	C 	0.7279	0.5259	0.7721	-0.003
Mof_C 	C 	0.7721	0.9741	0.7721	-0.022
Mof_C 	C 	0.7721	0.4741	0.2721	-0.003
Mof_C 	C 	0.2721	0.9741	0.2721	-0.022
Mof_C 	C 	0.2721	0.4741	0.7721	-0.003
Mof_C 	C 	0.2279	0.9741	0.2279	-0.022
Mof_C 	C 	0.2279	0.4741	0.7279	-0.003
Mof_C 	C 	0.7279	0.9741	0.7279	-0.022
Mof_C 	C 	0.7279	0.4741	0.2279	-0.003
Mof_C 	C 	0.7721	0.0259	0.2279	0.016
Mof_C 	C 	0.7721	0.5259	0.7279	-0.003
Mof_C 	C 	0.2721	0.0259	0.7279	0.016
Mof_C 	C 	0.2721	0.5259	0.2279	-0.003
Mof_C 	C 	0.0259	0.2279	0.7721	0.016
Mof_C 	C 	0.0259	0.7279	0.2721	0.016
Mof_C 	C 	0.5259	0.2279	0.2721	-0.003
Mof_C 	C 	0.5259	0.7279	0.7721	-0.003
Mof_C 	C 	0.9741	0.2279	0.2279	-0.022
Mof_C 	C 	0.9741	0.7279	0.7279	-0.022
Mof_C 	C 	0.4741	0.2279	0.7279	-0.003
Mof_C 	C 	0.4741	0.7279	0.2279	-0.003
Mof_C 	C 	0.9741	0.7721	0.7721	-0.022
Mof_C 	C 	0.9741	0.2721	0.2721	-0.022
Mof_C 	C 	0.4741	0.7721	0.2721	-0.003
Mof_C 	C 	0.4741	0.2721	0.7721	-0.003
Mof_C 	C 	0.0259	0.7721	0.2279	0.016
Mof_C 	C 	0.0259	0.2721	0.7279	0.016
Mof_C 	C 	0.5259	0.7721	0.7279	-0.003
Mof_C 	C 	0.5259	0.2721	0.2279	-0.003
Mof_C 	C 	0.2279	0.2279	0.9741	-0.022
Mof_C 	C 	0.2279	0.7279	0.4741	-0.003
Mof_C 	C 	0.7279	0.2279	0.4741	-0.003
Mof_C 	C 	0.7279	0.7279	0.9741	-0.022
Mof_C 	C 	0.2279	0.7721	0.0259	0.016
Mof_C 	C 	0.2279	0.2721	0.5259	-0.003
Mof_C 	C 	0.7279	0.7721	0.5259	-0.003
Mof_C 	C 	0.7279	0.2721	0.0259	0.016
Mof_C 	C 	0.7721	0.2279	0.0259	0.016
Mof_C 	C 	0.7721	0.7279	0.5259	-0.003
Mof_C 	C 	0.2721	0.2279	0.5259	-0.003
Mof_C 	C 	0.2721	0.7279	0.0259	0.016
Mof_C 	C 	0.7721	0.7721	0.9741	-0.022
Mof_C 	C 	0.7721	0.2721	0.4741	-0.003
Mof_C 	C 	0.2721	0.7721	0.4741	-0.003
Mof_C 	C 	0.2721	0.2721	0.9741	-0.022
_end
