# CIF file generated by openbabel 2.4.1, see http://openbabel.sf.net
data_I
_chemical_name_common 'ELAFUT_clean'
_cell_length_a 8.4243
_cell_length_b 11.6368
_cell_length_c 15.7095
_cell_angle_alpha 95.494
_cell_angle_beta 104.725
_cell_angle_gamma 99.122
_space_group_name_H-M_alt 'P 1'
_space_group_name_Hall 'P 1'
loop_
    _symmetry_equiv_pos_as_xyz
    x,y,z
loop_
    _atom_site_label
    _atom_site_type_symbol
    _atom_site_fract_x
    _atom_site_fract_y
    _atom_site_fract_z
    _atom_site_occupancy
    Cd1     Cd   0.52326   0.55008   0.67617   1.000
    Cd2     Cd   0.47674   0.44992   0.32383   1.000
    Cd3     Cd   0.50000   0.50000   0.00000   1.000
    H1      H    0.97150   0.43710   0.57050   1.000
    H2      H    0.06050   0.57250   0.58490   1.000
    H3      H    0.86860   0.41120   0.81170   1.000
    H4      H    0.01660   0.45090   0.90190   1.000
    H5      H    0.97770   0.56320   0.74510   1.000
    H6      H    0.10680   0.62570   0.83760   1.000
    H7      H    0.48760   0.34940   0.80060   1.000
    H8      H    0.61990   0.33330   0.57750   1.000
    H9      H    0.64740   0.13990   0.58230   1.000
    H10     H    0.50580   0.15550   0.81040   1.000
    H11     H    0.65550   0.96640   0.58550   1.000
    H12     H    0.48550   0.97260   0.80430   1.000
    H13     H    0.63260   0.76610   0.58070   1.000
    H14     H    0.24920   0.05770   0.97870   1.000
    H15     H    0.75160   0.11830   0.01550   1.000
    H16     H    0.25720   0.25580   0.97630   1.000
    H17     H    0.74430   0.31540   0.01210   1.000
    H18     H    0.46700   0.77160   0.79330   1.000
    H19     H    0.02850   0.56290   0.42950   1.000
    H20     H    0.93950   0.42750   0.41510   1.000
    H21     H    0.13140   0.58880   0.18830   1.000
    H22     H    0.98340   0.54910   0.09810   1.000
    H23     H    0.02230   0.43680   0.25490   1.000
    H24     H    0.89320   0.37430   0.16240   1.000
    H25     H    0.51240   0.65060   0.19940   1.000
    H26     H    0.38010   0.66670   0.42250   1.000
    H27     H    0.35260   0.86010   0.41770   1.000
    H28     H    0.49420   0.84450   0.18960   1.000
    H29     H    0.34450   0.03360   0.41450   1.000
    H30     H    0.51450   0.02740   0.19570   1.000
    H31     H    0.36740   0.23390   0.41930   1.000
    H32     H    0.75080   0.94230   0.02130   1.000
    H33     H    0.24840   0.88170   0.98450   1.000
    H34     H    0.74280   0.74420   0.02370   1.000
    H35     H    0.25570   0.68460   0.98790   1.000
    H36     H    0.53300   0.22840   0.20670   1.000
    C1      C    0.97510   0.51020   0.54291   1.000
    C2      C    0.94370   0.48000   0.85195   1.000
    C3      C    0.05030   0.54860   0.80172   1.000
    C4      C    0.51860   0.30590   0.75514   1.000
    C5      C    0.59640   0.29640   0.62546   1.000
    C6      C    0.61130   0.18030   0.62729   1.000
    C7      C    0.52890   0.18970   0.76124   1.000
    C8      C    0.57300   0.12203   0.69598   1.000
    C9      C    0.56980   0.99462   0.69465   1.000
    C10     C    0.61490   0.92860   0.62877   1.000
    C11     C    0.51520   0.93200   0.75702   1.000
    C12     C    0.60090   0.80880   0.62630   1.000
    C13     C    0.35310   0.10880   0.98636   1.000
    C14     C    0.64820   0.14430   0.00800   1.000
    C15     C    0.50040   0.06320   0.99885   1.000
    C16     C    0.35890   0.22740   0.98515   1.000
    C17     C    0.64290   0.26210   0.00600   1.000
    C18     C    0.50450   0.81180   0.75006   1.000
    C19     C    0.02490   0.48980   0.45709   1.000
    C20     C    0.05630   0.52000   0.14805   1.000
    C21     C    0.94970   0.45140   0.19828   1.000
    C22     C    0.48140   0.69410   0.24486   1.000
    C23     C    0.40360   0.70360   0.37454   1.000
    C24     C    0.38870   0.81970   0.37271   1.000
    C25     C    0.47110   0.81030   0.23876   1.000
    C26     C    0.42700   0.87797   0.30402   1.000
    C27     C    0.43020   0.00538   0.30535   1.000
    C28     C    0.38510   0.07140   0.37123   1.000
    C29     C    0.48480   0.06800   0.24298   1.000
    C30     C    0.39910   0.19120   0.37370   1.000
    C31     C    0.64690   0.89120   0.01364   1.000
    C32     C    0.35180   0.85570   0.99200   1.000
    C33     C    0.49960   0.93680   0.00115   1.000
    C34     C    0.64110   0.77260   0.01485   1.000
    C35     C    0.35710   0.73790   0.99400   1.000
    C36     C    0.49550   0.18820   0.24994   1.000
    S1      S    0.77629   0.55254   0.52392   1.000
    S2      S    0.82292   0.57223   0.89352   1.000
    S3      S    0.20243   0.46992   0.77919   1.000
    S4      S    0.22371   0.44746   0.47608   1.000
    S5      S    0.17708   0.42777   0.10648   1.000
    S6      S    0.79757   0.53008   0.22081   1.000
    N1      N    0.50100   0.30495   0.99588   1.000
    N2      N    0.55030   0.36019   0.68798   1.000
    N3      N    0.54440   0.74923   0.68535   1.000
    N4      N    0.49900   0.69505   0.00412   1.000
    N5      N    0.44970   0.63981   0.31202   1.000
    N6      N    0.45560   0.25077   0.31465   1.000
    O1      O    0.74783   0.56365   0.61212   1.000
    O2      O    0.78470   0.66075   0.48647   1.000
    O3      O    0.65715   0.45359   0.46367   1.000
    O4      O    0.72110   0.49684   0.93700   1.000
    O5      O    0.72090   0.61384   0.81744   1.000
    O6      O    0.94172   0.66649   0.95497   1.000
    O7      O    0.29640   0.44546   0.86532   1.000
    O8      O    0.30580   0.55175   0.74050   1.000
    O9      O    0.11450   0.36448   0.71950   1.000
    O10     O    0.25217   0.43635   0.38788   1.000
    O11     O    0.21530   0.33925   0.51353   1.000
    O12     O    0.34285   0.54641   0.53633   1.000
    O13     O    0.27890   0.50316   0.06300   1.000
    O14     O    0.27910   0.38616   0.18256   1.000
    O15     O    0.05828   0.33351   0.04503   1.000
    O16     O    0.70360   0.55454   0.13468   1.000
    O17     O    0.69420   0.44825   0.25950   1.000
    O18     O    0.88550   0.63552   0.28050   1.000
