data_functionalizedCrystal
_audit_creation_method	'EQeq! by Chris Wilmer'
_symmetry_space_group_name_H-M	'P1'
_symmetry_Int_Tables_number	1
_symmetry_cell_setting	triclinic
loop_
_symmetry_equiv_pos_as_xyz
  x,y,z
_cell_length_a	52.022
_cell_length_b	52.022
_cell_length_c	42.316
_cell_angle_alpha	90
_cell_angle_beta	90
_cell_angle_gamma	120
loop_
_atom_site_label
_atom_site_type_symbol
_atom_site_fract_x
_atom_site_fract_y
_atom_site_fract_z
_atom_site_charge
Mof_Zn	Zn	0.20796	0.35671	0.25799	1.237
Mof_Zn	Zn	0.14742	0.30703	0.28706	1.26
Mof_Zn	Zn	0.36516	0.66092	0.7281	1.131
Mof_O 	O 	0.17654	0.32442	0.32146	-0.498
Mof_O 	O 	0.21832	0.35699	0.30295	-0.476
Mof_O 	O 	0.23388	0.34757	0.23179	-0.475
Mof_O 	O 	0.11605	0.31443	0.29999	-0.493
Mof_O 	O 	0.33101	0.62854	0.69092	-0.509
Mof_O 	O 	0.3391	0.61155	0.73345	-0.538
Mof_O 	O 	0.22039	0.39862	0.24841	-0.528
Mof_O 	O 	0.12827	0.26587	0.2756	-0.49
Mof_O 	O 	0.18239	0.31056	0.26933	-0.434
Mof_C 	C 	0.28431	0.39102	0.54708	0.076
Mof_C 	C 	0.28979	0.37105	0.56337	-0.142
Mof_H 	H 	0.2868	0.3538	0.5535	0.08
Mof_C 	C 	0.29979	0.37688	0.59442	0.079
Mof_C 	C 	0.30431	0.40268	0.60919	-0.136
Mof_H 	H 	0.311	0.4066	0.63	0.075
Mof_C 	C 	0.29883	0.42265	0.5929	0.062
Mof_C 	C 	0.28883	0.41682	0.56185	-0.135
Mof_H 	H 	0.2852	0.4302	0.5509	0.075
Mof_C 	C 	0.24957	0.37122	0.45209	-0.002
Mof_C 	C 	0.2417	0.3482	0.47351	-0.05
Mof_H 	H 	0.2291	0.3287	0.4673	0.049
Mof_C 	C 	0.25263	0.35439	0.5042	-0.046
Mof_H 	H 	0.2474	0.339	0.5185	0.046
Mof_C 	C 	0.27143	0.38358	0.5135	-0.005
Mof_C 	C 	0.27929	0.40658	0.49209	-0.046
Mof_H 	H 	0.2919	0.4261	0.4983	0.046
Mof_C 	C 	0.26837	0.40041	0.46138	-0.05
Mof_H 	H 	0.2736	0.4158	0.4471	0.048
Mof_C 	C 	0.21481	0.35098	0.35695	-0.146
Mof_C 	C 	0.19745	0.33527	0.38269	0.07
Mof_H 	H 	0.1779	0.3204	0.3796	0.02
Mof_C 	C 	0.20933	0.34187	0.413	-0.137
Mof_H 	H 	0.1977	0.3314	0.4302	0.08
Mof_C 	C 	0.23856	0.36418	0.41756	0.075
Mof_C 	C 	0.25592	0.37989	0.39182	-0.137
Mof_H 	H 	0.2755	0.3948	0.3949	0.08
Mof_C 	C 	0.24405	0.37329	0.36151	0.071
Mof_H 	H 	0.2557	0.3838	0.3443	0.022
Mof_C 	C 	0.2002	0.34619	0.3248	0.456
Mof_C 	C 	0.30605	0.35645	0.61265	-0.011
Mof_C 	C 	0.29349	0.32782	0.6006	-0.039
Mof_H 	H 	0.2827	0.323	0.5819	0.041
Mof_C 	C 	0.29709	0.30646	0.61652	-0.056
Mof_H 	H 	0.2887	0.2873	0.6085	0.048
Mof_C 	C 	0.31324	0.31372	0.64449	0.005
Mof_C 	C 	0.3258	0.34235	0.65654	-0.054
Mof_H 	H 	0.3366	0.3472	0.6753	0.045
Mof_C 	C 	0.3222	0.36372	0.64062	-0.041
Mof_H 	H 	0.3306	0.3829	0.6487	0.041
Mof_C 	C 	0.31712	0.28841	0.65852	0.063
Mof_C 	C 	0.30435	0.25865	0.65027	-0.117
Mof_H 	H 	0.2921	0.2514	0.6326	0.07
Mof_C 	C 	0.30987	0.23965	0.66839	0.04
Mof_H 	H 	0.3013	0.2197	0.6629	0.033
Mof_C 	C 	0.32816	0.2504	0.69477	-0.126
Mof_C 	C 	0.34093	0.28017	0.70302	0.059
Mof_H 	H 	0.3532	0.2874	0.7207	0.025
Mof_C 	C 	0.33541	0.29917	0.6849	-0.124
Mof_H 	H 	0.344	0.3191	0.6904	0.073
Mof_C 	C 	0.225	0.32991	0.21005	0.418
Mof_C 	C 	0.3053	0.45231	0.6086	0.025
Mof_C 	C 	0.3289	0.4671	0.6294	-0.095
Mof_H 	H 	0.3416	0.4597	0.6334	0.058
Mof_C 	C 	0.3336	0.4929	0.6443	0.026
Mof_H 	H 	0.3494	0.5028	0.6582	0.012
Mof_C 	C 	0.3146	0.5039	0.6384	-0.073
Mof_C 	C 	0.291	0.4891	0.6175	0.009
Mof_H 	H 	0.2783	0.4965	0.6135	0.014
Mof_C 	C 	0.2864	0.4633	0.6026	-0.077
Mof_H 	H 	0.2706	0.4535	0.5887	0.053
Mof_C 	C 	0.31676	0.52858	0.65497	0.19
Mof_C 	C 	0.34114	0.54427	0.67465	-0.278
Mof_H 	H 	0.3543	0.5374	0.6781	0.126
Mof_C 	C 	0.34581	0.57024	0.68914	0.258
Mof_H 	H 	0.3621	0.5807	0.7023	-0.041
Mof_C 	C 	0.32612	0.58053	0.68395	-0.4
Mof_C 	C 	0.30175	0.56484	0.66427	0.272
Mof_H 	H 	0.2886	0.5717	0.6608	-0.043
Mof_C 	C 	0.29707	0.53886	0.64979	-0.285
Mof_H 	H 	0.2808	0.5284	0.6366	0.128
Mof_C 	C 	0.3304	0.6062	0.7044	1.007
Mof_C 	C 	0.25154	0.45922	0.24744	0.1
Mof_H 	H 	0.2619	0.449	0.2456	0.011
Mof_C 	C 	0.26733	0.48989	0.24739	-0.151
Mof_H 	H 	0.2879	0.4996	0.2456	0.081
Mof_C 	C 	0.30049	0.5575	0.245	-0.083
Mof_H 	H 	0.3106	0.5476	0.2399	0.057
Mof_C 	C 	0.31591	0.58787	0.2473	-0.001
Mof_H 	H 	0.3365	0.598	0.2469	0.026
Mof_C 	C 	0.107	0.2063	0.22281	0.123
Mof_H 	H 	0.1154	0.2167	0.2043	0.004
Mof_C 	C 	0.0909	0.1752	0.22279	-0.179
Mof_H 	H 	0.0876	0.1651	0.2038	0.095
Mof_C 	C 	0.03344	0.1095	0.2579	-0.043
Mof_H 	H 	0.0232	0.1195	0.262	0.046
Mof_C 	C 	0.019	0.0794	0.2598	-0.05
Mof_H 	H 	0.9998	0.069	0.2679	0.045
Mof_O 	O 	0.3053	0.6072	0.7046	-0.526
Mof_O 	O 	0.3529	0.62476	0.7098	-0.563
Mof_C 	C 	0.3057	0.4552	0.6406	-0.008
Mof_H 	H 	0.3027	0.4397	0.6539	0.028
Mof_C 	C 	0.3109	0.4822	0.6524	-0.036
Mof_H 	H 	0.3115	0.4837	0.6743	0.039
Mof_C 	C 	0.3077	0.4992	0.6087	-0.018
Mof_H 	H 	0.3019	0.5112	0.5983	0.03
Mof_C 	C 	0.3086	0.4766	0.5916	-0.024
Mof_H 	H 	0.3113	0.4778	0.5699	0.034
Mof_Zn	Zn	0.64329	0.85126	0.25799	1.236
Mof_Zn	Zn	0.69297	0.84038	0.28706	1.259
Mof_Zn	Zn	0.33908	0.70424	0.7281	1.13
Mof_O 	O 	0.67558	0.85212	0.32146	-0.499
Mof_O 	O 	0.64301	0.86133	0.30295	-0.477
Mof_O 	O 	0.65243	0.88631	0.23179	-0.476
Mof_O 	O 	0.68557	0.80162	0.29999	-0.494
Mof_O 	O 	0.37146	0.70247	0.69092	-0.51
Mof_O 	O 	0.38845	0.72755	0.73345	-0.539
Mof_O 	O 	0.60138	0.82177	0.24841	-0.529
Mof_O 	O 	0.73413	0.8624	0.2756	-0.491
Mof_O 	O 	0.68944	0.87183	0.26933	-0.435
Mof_C 	C 	0.60898	0.89329	0.54708	0.075
Mof_C 	C 	0.62895	0.91874	0.56337	-0.143
Mof_H 	H 	0.6462	0.933	0.5535	0.079
Mof_C 	C 	0.62312	0.92291	0.59442	0.078
Mof_C 	C 	0.59732	0.90163	0.60919	-0.137
Mof_H 	H 	0.5934	0.9044	0.63	0.074
Mof_C 	C 	0.57735	0.87618	0.5929	0.061
Mof_C 	C 	0.58318	0.87201	0.56185	-0.136
Mof_H 	H 	0.5698	0.855	0.5509	0.074
Mof_C 	C 	0.62878	0.87835	0.45209	-0.003
Mof_C 	C 	0.6518	0.8935	0.47351	-0.051
Mof_H 	H 	0.6713	0.9004	0.4673	0.048
Mof_C 	C 	0.64561	0.89824	0.5042	-0.047
Mof_H 	H 	0.661	0.9084	0.5185	0.045
Mof_C 	C 	0.61642	0.88785	0.5135	-0.006
Mof_C 	C 	0.59342	0.87271	0.49209	-0.047
Mof_H 	H 	0.5739	0.8658	0.4983	0.045
Mof_C 	C 	0.59959	0.86796	0.46138	-0.051
Mof_H 	H 	0.5842	0.8578	0.4471	0.047
Mof_C 	C 	0.64902	0.86383	0.35695	-0.147
Mof_C 	C 	0.66473	0.86218	0.38269	0.069
Mof_H 	H 	0.6796	0.8575	0.3796	0.019
Mof_C 	C 	0.65813	0.86746	0.413	-0.138
Mof_H 	H 	0.6686	0.8663	0.4302	0.079
Mof_C 	C 	0.63582	0.87438	0.41756	0.074
Mof_C 	C 	0.62011	0.87603	0.39182	-0.138
Mof_H 	H 	0.6052	0.8807	0.3949	0.079
Mof_C 	C 	0.62671	0.87076	0.36151	0.07
Mof_H 	H 	0.6162	0.8719	0.3443	0.021
Mof_C 	C 	0.65381	0.85401	0.3248	0.455
Mof_C 	C 	0.64355	0.9496	0.61265	-0.012
Mof_C 	C 	0.67218	0.96567	0.6006	-0.04
Mof_H 	H 	0.677	0.9597	0.5819	0.041
Mof_C 	C 	0.69354	0.99063	0.61652	-0.056
Mof_H 	H 	0.7127	0.0014	0.6085	0.048
Mof_C 	C 	0.68628	0.99952	0.64449	0.005
Mof_C 	C 	0.65765	0.98345	0.65654	-0.054
Mof_H 	H 	0.6528	0.9894	0.6753	0.045
Mof_C 	C 	0.63628	0.95848	0.64062	-0.041
Mof_H 	H 	0.6171	0.9477	0.6487	0.041
Mof_C 	C 	0.71159	0.02871	0.65852	0.063
Mof_C 	C 	0.74135	0.0457	0.65027	-0.117
Mof_H 	H 	0.7486	0.0407	0.6326	0.07
Mof_C 	C 	0.76035	0.07022	0.66839	0.04
Mof_H 	H 	0.7803	0.0816	0.6629	0.033
Mof_C 	C 	0.7496	0.07776	0.69477	-0.126
Mof_C 	C 	0.71983	0.06076	0.70302	0.059
Mof_H 	H 	0.7126	0.0658	0.7207	0.025
Mof_C 	C 	0.70083	0.03624	0.6849	-0.124
Mof_H 	H 	0.6809	0.0249	0.6904	0.073
Mof_C 	C 	0.67009	0.89509	0.21005	0.418
Mof_C 	C 	0.54769	0.85299	0.6086	0.025
Mof_C 	C 	0.5329	0.8618	0.6294	-0.095
Mof_H 	H 	0.5403	0.8819	0.6334	0.058
Mof_C 	C 	0.5071	0.8407	0.6443	0.026
Mof_H 	H 	0.4972	0.8466	0.6582	0.012
Mof_C 	C 	0.4961	0.8107	0.6384	-0.073
Mof_C 	C 	0.5109	0.8019	0.6175	0.009
Mof_H 	H 	0.5035	0.7818	0.6135	0.014
Mof_C 	C 	0.5367	0.8231	0.6026	-0.077
Mof_H 	H 	0.5465	0.8171	0.5887	0.053
Mof_C 	C 	0.47142	0.78818	0.65497	0.19
Mof_C 	C 	0.45573	0.79687	0.67465	-0.278
Mof_H 	H 	0.4626	0.8169	0.6781	0.126
Mof_C 	C 	0.42976	0.77557	0.68914	0.258
Mof_H 	H 	0.4193	0.7814	0.7023	-0.041
Mof_C 	C 	0.41947	0.74559	0.68395	-0.4
Mof_C 	C 	0.43516	0.73691	0.66427	0.272
Mof_H 	H 	0.4283	0.7169	0.6608	-0.043
Mof_C 	C 	0.46114	0.75821	0.64979	-0.285
Mof_H 	H 	0.4716	0.7524	0.6366	0.128
Mof_C 	C 	0.3938	0.7242	0.7044	1.007
Mof_C 	C 	0.54078	0.79232	0.24744	0.1
Mof_H 	H 	0.551	0.8129	0.2456	0.011
Mof_C 	C 	0.51011	0.77744	0.24739	-0.151
Mof_H 	H 	0.5004	0.7883	0.2456	0.081
Mof_C 	C 	0.4425	0.74299	0.245	-0.083
Mof_H 	H 	0.4524	0.763	0.2399	0.057
Mof_C 	C 	0.41213	0.72804	0.2473	-0.001
Mof_H 	H 	0.402	0.7385	0.2469	0.026
Mof_C 	C 	0.7937	0.9007	0.22281	0.123
Mof_H 	H 	0.7833	0.8987	0.2043	0.004
Mof_C 	C 	0.8248	0.9157	0.22279	-0.179
Mof_H 	H 	0.8349	0.9225	0.2038	0.095
Mof_C 	C 	0.8905	0.92394	0.2579	-0.043
Mof_H 	H 	0.8805	0.9037	0.262	0.046
Mof_C 	C 	0.9206	0.9396	0.2598	-0.05
Mof_H 	H 	0.931	0.9308	0.2679	0.045
Mof_O 	O 	0.3928	0.6981	0.7046	-0.526
Mof_O 	O 	0.37524	0.72814	0.7098	-0.563
Mof_C 	C 	0.5448	0.8505	0.6406	-0.008
Mof_H 	H 	0.5603	0.863	0.6539	0.028
Mof_C 	C 	0.5178	0.8287	0.6524	-0.036
Mof_H 	H 	0.5163	0.8278	0.6743	0.039
Mof_C 	C 	0.5008	0.8085	0.6087	-0.018
Mof_H 	H 	0.4888	0.7907	0.5983	0.03
Mof_C 	C 	0.5234	0.832	0.5916	-0.024
Mof_H 	H 	0.5222	0.8335	0.5699	0.034
Mof_Zn	Zn	0.14874	0.79204	0.25799	1.236
Mof_Zn	Zn	0.15962	0.85258	0.28706	1.259
Mof_Zn	Zn	0.29576	0.63484	0.7281	1.13
Mof_O 	O 	0.14788	0.82346	0.32146	-0.499
Mof_O 	O 	0.13867	0.78168	0.30295	-0.477
Mof_O 	O 	0.11369	0.76612	0.23179	-0.476
Mof_O 	O 	0.19838	0.88395	0.29999	-0.494
Mof_O 	O 	0.29753	0.66899	0.69092	-0.51
Mof_O 	O 	0.27245	0.6609	0.73345	-0.539
Mof_O 	O 	0.17823	0.77961	0.24841	-0.529
Mof_O 	O 	0.1376	0.87173	0.2756	-0.491
Mof_O 	O 	0.12817	0.81761	0.26933	-0.435
Mof_C 	C 	0.10671	0.71569	0.54708	0.075
Mof_C 	C 	0.08126	0.71021	0.56337	-0.143
Mof_H 	H 	0.067	0.7132	0.5535	0.079
Mof_C 	C 	0.07709	0.70021	0.59442	0.078
Mof_C 	C 	0.09837	0.69569	0.60919	-0.137
Mof_H 	H 	0.0956	0.689	0.63	0.074
Mof_C 	C 	0.12382	0.70117	0.5929	0.061
Mof_C 	C 	0.12799	0.71117	0.56185	-0.136
Mof_H 	H 	0.145	0.7148	0.5509	0.074
Mof_C 	C 	0.12165	0.75043	0.45209	-0.003
Mof_C 	C 	0.1065	0.7583	0.47351	-0.051
Mof_H 	H 	0.0996	0.7709	0.4673	0.048
Mof_C 	C 	0.10176	0.74737	0.5042	-0.047
Mof_H 	H 	0.0916	0.7526	0.5185	0.045
Mof_C 	C 	0.11215	0.72857	0.5135	-0.006
Mof_C 	C 	0.12729	0.72071	0.49209	-0.047
Mof_H 	H 	0.1342	0.7081	0.4983	0.045
Mof_C 	C 	0.13204	0.73163	0.46138	-0.051
Mof_H 	H 	0.1422	0.7264	0.4471	0.047
Mof_C 	C 	0.13617	0.78519	0.35695	-0.147
Mof_C 	C 	0.13782	0.80255	0.38269	0.069
Mof_H 	H 	0.1425	0.8221	0.3796	0.019
Mof_C 	C 	0.13254	0.79067	0.413	-0.138
Mof_H 	H 	0.1337	0.8023	0.4302	0.079
Mof_C 	C 	0.12562	0.76144	0.41756	0.074
Mof_C 	C 	0.12397	0.74408	0.39182	-0.138
Mof_H 	H 	0.1193	0.7245	0.3949	0.079
Mof_C 	C 	0.12924	0.75595	0.36151	0.07
Mof_H 	H 	0.1281	0.7443	0.3443	0.021
Mof_C 	C 	0.14599	0.7998	0.3248	0.455
Mof_C 	C 	0.0504	0.69395	0.61265	-0.012
Mof_C 	C 	0.03433	0.70651	0.6006	-0.04
Mof_H 	H 	0.0403	0.7173	0.5819	0.041
Mof_C 	C 	0.00937	0.70291	0.61652	-0.056
Mof_H 	H 	0.9986	0.7113	0.6085	0.048
Mof_C 	C 	0.00048	0.68676	0.64449	0.005
Mof_C 	C 	0.01655	0.6742	0.65654	-0.054
Mof_H 	H 	0.0106	0.6634	0.6753	0.045
Mof_C 	C 	0.04152	0.6778	0.64062	-0.041
Mof_H 	H 	0.0523	0.6694	0.6487	0.041
Mof_C 	C 	0.97129	0.68288	0.65852	0.063
Mof_C 	C 	0.9543	0.69565	0.65027	-0.117
Mof_H 	H 	0.9593	0.7079	0.6326	0.07
Mof_C 	C 	0.92978	0.69013	0.66839	0.04
Mof_H 	H 	0.9184	0.6987	0.6629	0.033
Mof_C 	C 	0.92224	0.67184	0.69477	-0.126
Mof_C 	C 	0.93924	0.65907	0.70302	0.059
Mof_H 	H 	0.9342	0.6468	0.7207	0.025
Mof_C 	C 	0.96376	0.66459	0.6849	-0.124
Mof_H 	H 	0.9751	0.656	0.6904	0.073
Mof_C 	C 	0.10491	0.775	0.21005	0.418
Mof_C 	C 	0.14701	0.6947	0.6086	0.025
Mof_C 	C 	0.1382	0.6711	0.6294	-0.095
Mof_H 	H 	0.1181	0.6584	0.6334	0.058
Mof_C 	C 	0.1593	0.6664	0.6443	0.026
Mof_H 	H 	0.1534	0.6506	0.6582	0.012
Mof_C 	C 	0.1893	0.6854	0.6384	-0.073
Mof_C 	C 	0.1981	0.709	0.6175	0.009
Mof_H 	H 	0.2182	0.7217	0.6135	0.014
Mof_C 	C 	0.1769	0.7136	0.6026	-0.077
Mof_H 	H 	0.1829	0.7294	0.5887	0.053
Mof_C 	C 	0.21182	0.68324	0.65497	0.19
Mof_C 	C 	0.20313	0.65886	0.67465	-0.278
Mof_H 	H 	0.1831	0.6457	0.6781	0.126
Mof_C 	C 	0.22443	0.65419	0.68914	0.258
Mof_H 	H 	0.2186	0.6379	0.7023	-0.041
Mof_C 	C 	0.25441	0.67388	0.68395	-0.4
Mof_C 	C 	0.26309	0.69825	0.66427	0.272
Mof_H 	H 	0.2831	0.7114	0.6608	-0.043
Mof_C 	C 	0.24179	0.70293	0.64979	-0.285
Mof_H 	H 	0.2476	0.7192	0.6366	0.128
Mof_C 	C 	0.2758	0.6696	0.7044	1.007
Mof_C 	C 	0.20768	0.74846	0.24744	0.1
Mof_H 	H 	0.1871	0.7381	0.2456	0.011
Mof_C 	C 	0.22256	0.73267	0.24739	-0.151
Mof_H 	H 	0.2117	0.7121	0.2456	0.081
Mof_C 	C 	0.25701	0.69951	0.245	-0.083
Mof_H 	H 	0.237	0.6894	0.2399	0.057
Mof_C 	C 	0.27196	0.68409	0.2473	-0.001
Mof_H 	H 	0.2615	0.6635	0.2469	0.026
Mof_C 	C 	0.0993	0.893	0.22281	0.123
Mof_H 	H 	0.1013	0.8846	0.2043	0.004
Mof_C 	C 	0.0843	0.9091	0.22279	-0.179
Mof_H 	H 	0.0775	0.9124	0.2038	0.095
Mof_C 	C 	0.07606	0.96656	0.2579	-0.043
Mof_H 	H 	0.0963	0.9768	0.262	0.046
Mof_C 	C 	0.0604	0.981	0.2598	-0.05
Mof_H 	H 	0.0692	0.0002	0.2679	0.045
Mof_O 	O 	0.3019	0.6947	0.7046	-0.526
Mof_O 	O 	0.27186	0.6471	0.7098	-0.563
Mof_C 	C 	0.1495	0.6943	0.6406	-0.008
Mof_H 	H 	0.137	0.6973	0.6539	0.028
Mof_C 	C 	0.1713	0.6891	0.6524	-0.036
Mof_H 	H 	0.1722	0.6885	0.6743	0.039
Mof_C 	C 	0.1915	0.6923	0.6087	-0.018
Mof_H 	H 	0.2093	0.6981	0.5983	0.03
Mof_C 	C 	0.168	0.6914	0.5916	-0.024
Mof_H 	H 	0.1665	0.6887	0.5699	0.034
Mof_Zn	Zn	0.64329	0.79204	0.24201	1.236
Mof_Zn	Zn	0.69297	0.85258	0.21294	1.259
Mof_Zn	Zn	0.33908	0.63484	0.7719	1.13
Mof_O 	O 	0.67558	0.82346	0.17854	-0.499
Mof_O 	O 	0.64301	0.78168	0.19705	-0.477
Mof_O 	O 	0.65243	0.76612	0.26821	-0.476
Mof_O 	O 	0.68557	0.88395	0.20001	-0.494
Mof_O 	O 	0.37146	0.66899	0.80908	-0.51
Mof_O 	O 	0.38845	0.6609	0.76655	-0.539
Mof_O 	O 	0.60138	0.77961	0.25159	-0.529
Mof_O 	O 	0.73413	0.87173	0.2244	-0.491
Mof_O 	O 	0.68944	0.81761	0.23067	-0.435
Mof_C 	C 	0.60898	0.71569	0.95292	0.075
Mof_C 	C 	0.62895	0.71021	0.93663	-0.143
Mof_H 	H 	0.6462	0.7132	0.9465	0.079
Mof_C 	C 	0.62312	0.70021	0.90558	0.078
Mof_C 	C 	0.59732	0.69569	0.89081	-0.137
Mof_H 	H 	0.5934	0.689	0.87	0.074
Mof_C 	C 	0.57735	0.70117	0.9071	0.061
Mof_C 	C 	0.58318	0.71117	0.93815	-0.136
Mof_H 	H 	0.5698	0.7148	0.9491	0.074
Mof_C 	C 	0.62878	0.75043	0.04791	-0.003
Mof_C 	C 	0.6518	0.7583	0.02649	-0.051
Mof_H 	H 	0.6713	0.7709	0.0327	0.048
Mof_C 	C 	0.64561	0.74737	0.9958	-0.047
Mof_H 	H 	0.661	0.7526	0.9815	0.045
Mof_C 	C 	0.61642	0.72857	0.9865	-0.006
Mof_C 	C 	0.59342	0.72071	0.00791	-0.047
Mof_H 	H 	0.5739	0.7081	0.0017	0.045
Mof_C 	C 	0.59959	0.73163	0.03862	-0.051
Mof_H 	H 	0.5842	0.7264	0.0529	0.047
Mof_C 	C 	0.64902	0.78519	0.14305	-0.147
Mof_C 	C 	0.66473	0.80255	0.11731	0.069
Mof_H 	H 	0.6796	0.8221	0.1204	0.019
Mof_C 	C 	0.65813	0.79067	0.087	-0.138
Mof_H 	H 	0.6686	0.8023	0.0698	0.079
Mof_C 	C 	0.63582	0.76144	0.08244	0.074
Mof_C 	C 	0.62011	0.74408	0.10818	-0.138
Mof_H 	H 	0.6052	0.7245	0.1051	0.079
Mof_C 	C 	0.62671	0.75595	0.13849	0.07
Mof_H 	H 	0.6162	0.7443	0.1557	0.021
Mof_C 	C 	0.65381	0.7998	0.1752	0.455
Mof_C 	C 	0.64355	0.69395	0.88735	-0.012
Mof_C 	C 	0.67218	0.70651	0.8994	-0.04
Mof_H 	H 	0.677	0.7173	0.9181	0.041
Mof_C 	C 	0.69354	0.70291	0.88348	-0.056
Mof_H 	H 	0.7127	0.7113	0.8915	0.048
Mof_C 	C 	0.68628	0.68676	0.85551	0.005
Mof_C 	C 	0.65765	0.6742	0.84346	-0.054
Mof_H 	H 	0.6528	0.6634	0.8247	0.045
Mof_C 	C 	0.63628	0.6778	0.85938	-0.041
Mof_H 	H 	0.6171	0.6694	0.8513	0.041
Mof_C 	C 	0.71159	0.68288	0.84148	0.063
Mof_C 	C 	0.74135	0.69565	0.84973	-0.117
Mof_H 	H 	0.7486	0.7079	0.8674	0.07
Mof_C 	C 	0.76035	0.69013	0.83161	0.04
Mof_H 	H 	0.7803	0.6987	0.8371	0.033
Mof_C 	C 	0.7496	0.67184	0.80523	-0.126
Mof_C 	C 	0.71983	0.65907	0.79698	0.059
Mof_H 	H 	0.7126	0.6468	0.7793	0.025
Mof_C 	C 	0.70083	0.66459	0.8151	-0.124
Mof_H 	H 	0.6809	0.656	0.8096	0.073
Mof_C 	C 	0.67009	0.775	0.28995	0.418
Mof_C 	C 	0.54769	0.6947	0.8914	0.025
Mof_C 	C 	0.5329	0.6711	0.8706	-0.095
Mof_H 	H 	0.5403	0.6584	0.8666	0.058
Mof_C 	C 	0.5071	0.6664	0.8557	0.026
Mof_H 	H 	0.4972	0.6506	0.8418	0.012
Mof_C 	C 	0.4961	0.6854	0.8616	-0.073
Mof_C 	C 	0.5109	0.709	0.8825	0.009
Mof_H 	H 	0.5035	0.7217	0.8865	0.014
Mof_C 	C 	0.5367	0.7136	0.8974	-0.077
Mof_H 	H 	0.5465	0.7294	0.9113	0.053
Mof_C 	C 	0.47142	0.68324	0.84503	0.19
Mof_C 	C 	0.45573	0.65886	0.82535	-0.278
Mof_H 	H 	0.4626	0.6457	0.8219	0.126
Mof_C 	C 	0.42976	0.65419	0.81086	0.258
Mof_H 	H 	0.4193	0.6379	0.7977	-0.041
Mof_C 	C 	0.41947	0.67388	0.81605	-0.4
Mof_C 	C 	0.43516	0.69825	0.83573	0.272
Mof_H 	H 	0.4283	0.7114	0.8392	-0.043
Mof_C 	C 	0.46114	0.70293	0.85021	-0.285
Mof_H 	H 	0.4716	0.7192	0.8634	0.128
Mof_C 	C 	0.3938	0.6696	0.7956	1.007
Mof_C 	C 	0.54078	0.74846	0.25256	0.1
Mof_H 	H 	0.551	0.7381	0.2544	0.011
Mof_C 	C 	0.51011	0.73267	0.25261	-0.151
Mof_H 	H 	0.5004	0.7121	0.2544	0.081
Mof_C 	C 	0.4425	0.69951	0.255	-0.083
Mof_H 	H 	0.4524	0.6894	0.2601	0.057
Mof_C 	C 	0.41213	0.68409	0.2527	-0.001
Mof_H 	H 	0.402	0.6635	0.2531	0.026
Mof_C 	C 	0.7937	0.893	0.27719	0.123
Mof_H 	H 	0.7833	0.8846	0.2957	0.004
Mof_C 	C 	0.8248	0.9091	0.27721	-0.179
Mof_H 	H 	0.8349	0.9124	0.2962	0.095
Mof_C 	C 	0.8905	0.96656	0.2421	-0.043
Mof_H 	H 	0.8805	0.9768	0.238	0.046
Mof_C 	C 	0.9206	0.981	0.2402	-0.05
Mof_H 	H 	0.931	0.0002	0.2321	0.045
Mof_O 	O 	0.3928	0.6947	0.7954	-0.526
Mof_O 	O 	0.37524	0.6471	0.7902	-0.563
Mof_C 	C 	0.5448	0.6943	0.8594	-0.008
Mof_H 	H 	0.5603	0.6973	0.8461	0.028
Mof_C 	C 	0.5178	0.6891	0.8476	-0.036
Mof_H 	H 	0.5163	0.6885	0.8257	0.039
Mof_C 	C 	0.5008	0.6923	0.8913	-0.018
Mof_H 	H 	0.4888	0.6981	0.9017	0.03
Mof_C 	C 	0.5234	0.6914	0.9084	-0.024
Mof_H 	H 	0.5222	0.6887	0.9301	0.034
Mof_Zn	Zn	0.14874	0.35671	0.24201	1.236
Mof_Zn	Zn	0.15962	0.30703	0.21294	1.259
Mof_Zn	Zn	0.29576	0.66092	0.7719	1.13
Mof_O 	O 	0.14788	0.32442	0.17854	-0.499
Mof_O 	O 	0.13867	0.35699	0.19705	-0.477
Mof_O 	O 	0.11369	0.34757	0.26821	-0.476
Mof_O 	O 	0.19838	0.31443	0.20001	-0.494
Mof_O 	O 	0.29753	0.62854	0.80908	-0.51
Mof_O 	O 	0.27245	0.61155	0.76655	-0.539
Mof_O 	O 	0.17823	0.39862	0.25159	-0.529
Mof_O 	O 	0.1376	0.26587	0.2244	-0.491
Mof_O 	O 	0.12817	0.31056	0.23067	-0.435
Mof_C 	C 	0.10671	0.39102	0.95292	0.075
Mof_C 	C 	0.08126	0.37105	0.93663	-0.143
Mof_H 	H 	0.067	0.3538	0.9465	0.079
Mof_C 	C 	0.07709	0.37688	0.90558	0.078
Mof_C 	C 	0.09837	0.40268	0.89081	-0.137
Mof_H 	H 	0.0956	0.4066	0.87	0.074
Mof_C 	C 	0.12382	0.42265	0.9071	0.061
Mof_C 	C 	0.12799	0.41682	0.93815	-0.136
Mof_H 	H 	0.145	0.4302	0.9491	0.074
Mof_C 	C 	0.12165	0.37122	0.04791	-0.003
Mof_C 	C 	0.1065	0.3482	0.02649	-0.051
Mof_H 	H 	0.0996	0.3287	0.0327	0.048
Mof_C 	C 	0.10176	0.35439	0.9958	-0.047
Mof_H 	H 	0.0916	0.339	0.9815	0.045
Mof_C 	C 	0.11215	0.38358	0.9865	-0.006
Mof_C 	C 	0.12729	0.40658	0.00791	-0.047
Mof_H 	H 	0.1342	0.4261	0.0017	0.045
Mof_C 	C 	0.13204	0.40041	0.03862	-0.051
Mof_H 	H 	0.1422	0.4158	0.0529	0.047
Mof_C 	C 	0.13617	0.35098	0.14305	-0.147
Mof_C 	C 	0.13782	0.33527	0.11731	0.069
Mof_H 	H 	0.1425	0.3204	0.1204	0.019
Mof_C 	C 	0.13254	0.34187	0.087	-0.138
Mof_H 	H 	0.1337	0.3314	0.0698	0.079
Mof_C 	C 	0.12562	0.36418	0.08244	0.074
Mof_C 	C 	0.12397	0.37989	0.10818	-0.138
Mof_H 	H 	0.1193	0.3948	0.1051	0.079
Mof_C 	C 	0.12924	0.37329	0.13849	0.07
Mof_H 	H 	0.1281	0.3838	0.1557	0.021
Mof_C 	C 	0.14599	0.34619	0.1752	0.455
Mof_C 	C 	0.0504	0.35645	0.88735	-0.012
Mof_C 	C 	0.03433	0.32782	0.8994	-0.04
Mof_H 	H 	0.0403	0.323	0.9181	0.041
Mof_C 	C 	0.00937	0.30646	0.88348	-0.056
Mof_H 	H 	0.9986	0.2873	0.8915	0.048
Mof_C 	C 	0.00048	0.31372	0.85551	0.005
Mof_C 	C 	0.01655	0.34235	0.84346	-0.054
Mof_H 	H 	0.0106	0.3472	0.8247	0.045
Mof_C 	C 	0.04152	0.36372	0.85938	-0.041
Mof_H 	H 	0.0523	0.3829	0.8513	0.041
Mof_C 	C 	0.97129	0.28841	0.84148	0.063
Mof_C 	C 	0.9543	0.25865	0.84973	-0.117
Mof_H 	H 	0.9593	0.2514	0.8674	0.07
Mof_C 	C 	0.92978	0.23965	0.83161	0.04
Mof_H 	H 	0.9184	0.2197	0.8371	0.033
Mof_C 	C 	0.92224	0.2504	0.80523	-0.126
Mof_C 	C 	0.93924	0.28017	0.79698	0.059
Mof_H 	H 	0.9342	0.2874	0.7793	0.025
Mof_C 	C 	0.96376	0.29917	0.8151	-0.124
Mof_H 	H 	0.9751	0.3191	0.8096	0.073
Mof_C 	C 	0.10491	0.32991	0.28995	0.418
Mof_C 	C 	0.14701	0.45231	0.8914	0.025
Mof_C 	C 	0.1382	0.4671	0.8706	-0.095
Mof_H 	H 	0.1181	0.4597	0.8666	0.058
Mof_C 	C 	0.1593	0.4929	0.8557	0.026
Mof_H 	H 	0.1534	0.5028	0.8418	0.012
Mof_C 	C 	0.1893	0.5039	0.8616	-0.073
Mof_C 	C 	0.1981	0.4891	0.8825	0.009
Mof_H 	H 	0.2182	0.4965	0.8865	0.014
Mof_C 	C 	0.1769	0.4633	0.8974	-0.077
Mof_H 	H 	0.1829	0.4535	0.9113	0.053
Mof_C 	C 	0.21182	0.52858	0.84503	0.19
Mof_C 	C 	0.20313	0.54427	0.82535	-0.278
Mof_H 	H 	0.1831	0.5374	0.8219	0.126
Mof_C 	C 	0.22443	0.57024	0.81086	0.258
Mof_H 	H 	0.2186	0.5807	0.7977	-0.041
Mof_C 	C 	0.25441	0.58053	0.81605	-0.4
Mof_C 	C 	0.26309	0.56484	0.83573	0.272
Mof_H 	H 	0.2831	0.5717	0.8392	-0.043
Mof_C 	C 	0.24179	0.53886	0.85021	-0.285
Mof_H 	H 	0.2476	0.5284	0.8634	0.128
Mof_C 	C 	0.2758	0.6062	0.7956	1.007
Mof_C 	C 	0.20768	0.45922	0.25256	0.1
Mof_H 	H 	0.1871	0.449	0.2544	0.011
Mof_C 	C 	0.22256	0.48989	0.25261	-0.151
Mof_H 	H 	0.2117	0.4996	0.2544	0.081
Mof_C 	C 	0.25701	0.5575	0.255	-0.083
Mof_H 	H 	0.237	0.5476	0.2601	0.057
Mof_C 	C 	0.27196	0.58787	0.2527	-0.001
Mof_H 	H 	0.2615	0.598	0.2531	0.026
Mof_C 	C 	0.0993	0.2063	0.27719	0.123
Mof_H 	H 	0.1013	0.2167	0.2957	0.004
Mof_C 	C 	0.0843	0.1752	0.27721	-0.179
Mof_H 	H 	0.0775	0.1651	0.2962	0.095
Mof_C 	C 	0.07606	0.1095	0.2421	-0.043
Mof_H 	H 	0.0963	0.1195	0.238	0.046
Mof_C 	C 	0.0604	0.0794	0.2402	-0.05
Mof_H 	H 	0.0692	0.069	0.2321	0.045
Mof_O 	O 	0.3019	0.6072	0.7954	-0.526
Mof_O 	O 	0.27186	0.62476	0.7902	-0.563
Mof_C 	C 	0.1495	0.4552	0.8594	-0.008
Mof_H 	H 	0.137	0.4397	0.8461	0.028
Mof_C 	C 	0.1713	0.4822	0.8476	-0.036
Mof_H 	H 	0.1722	0.4837	0.8257	0.039
Mof_C 	C 	0.1915	0.4992	0.8913	-0.018
Mof_H 	H 	0.2093	0.5112	0.9017	0.03
Mof_C 	C 	0.168	0.4766	0.9084	-0.024
Mof_H 	H 	0.1665	0.4778	0.9301	0.034
Mof_Zn	Zn	0.20796	0.85126	0.24201	1.236
Mof_Zn	Zn	0.14742	0.84038	0.21294	1.259
Mof_Zn	Zn	0.36516	0.70424	0.7719	1.13
Mof_O 	O 	0.17654	0.85212	0.17854	-0.499
Mof_O 	O 	0.21832	0.86133	0.19705	-0.477
Mof_O 	O 	0.23388	0.88631	0.26821	-0.476
Mof_O 	O 	0.11605	0.80162	0.20001	-0.494
Mof_O 	O 	0.33101	0.70247	0.80908	-0.51
Mof_O 	O 	0.3391	0.72755	0.76655	-0.539
Mof_O 	O 	0.22039	0.82177	0.25159	-0.529
Mof_O 	O 	0.12827	0.8624	0.2244	-0.491
Mof_O 	O 	0.18239	0.87183	0.23067	-0.435
Mof_C 	C 	0.28431	0.89329	0.95292	0.075
Mof_C 	C 	0.28979	0.91874	0.93663	-0.143
Mof_H 	H 	0.2868	0.933	0.9465	0.079
Mof_C 	C 	0.29979	0.92291	0.90558	0.078
Mof_C 	C 	0.30431	0.90163	0.89081	-0.137
Mof_H 	H 	0.311	0.9044	0.87	0.074
Mof_C 	C 	0.29883	0.87618	0.9071	0.061
Mof_C 	C 	0.28883	0.87201	0.93815	-0.136
Mof_H 	H 	0.2852	0.855	0.9491	0.074
Mof_C 	C 	0.24957	0.87835	0.04791	-0.003
Mof_C 	C 	0.2417	0.8935	0.02649	-0.051
Mof_H 	H 	0.2291	0.9004	0.0327	0.048
Mof_C 	C 	0.25263	0.89824	0.9958	-0.047
Mof_H 	H 	0.2474	0.9084	0.9815	0.045
Mof_C 	C 	0.27143	0.88785	0.9865	-0.006
Mof_C 	C 	0.27929	0.87271	0.00791	-0.047
Mof_H 	H 	0.2919	0.8658	0.0017	0.045
Mof_C 	C 	0.26837	0.86796	0.03862	-0.051
Mof_H 	H 	0.2736	0.8578	0.0529	0.047
Mof_C 	C 	0.21481	0.86383	0.14305	-0.147
Mof_C 	C 	0.19745	0.86218	0.11731	0.069
Mof_H 	H 	0.1779	0.8575	0.1204	0.019
Mof_C 	C 	0.20933	0.86746	0.087	-0.138
Mof_H 	H 	0.1977	0.8663	0.0698	0.079
Mof_C 	C 	0.23856	0.87438	0.08244	0.074
Mof_C 	C 	0.25592	0.87603	0.10818	-0.138
Mof_H 	H 	0.2755	0.8807	0.1051	0.079
Mof_C 	C 	0.24405	0.87076	0.13849	0.07
Mof_H 	H 	0.2557	0.8719	0.1557	0.021
Mof_C 	C 	0.2002	0.85401	0.1752	0.455
Mof_C 	C 	0.30605	0.9496	0.88735	-0.012
Mof_C 	C 	0.29349	0.96567	0.8994	-0.04
Mof_H 	H 	0.2827	0.9597	0.9181	0.041
Mof_C 	C 	0.29709	0.99063	0.88348	-0.056
Mof_H 	H 	0.2887	0.0014	0.8915	0.048
Mof_C 	C 	0.31324	0.99952	0.85551	0.005
Mof_C 	C 	0.3258	0.98345	0.84346	-0.054
Mof_H 	H 	0.3366	0.9894	0.8247	0.045
Mof_C 	C 	0.3222	0.95848	0.85938	-0.041
Mof_H 	H 	0.3306	0.9477	0.8513	0.041
Mof_C 	C 	0.31712	0.02871	0.84148	0.063
Mof_C 	C 	0.30435	0.0457	0.84973	-0.117
Mof_H 	H 	0.2921	0.0407	0.8674	0.07
Mof_C 	C 	0.30987	0.07022	0.83161	0.04
Mof_H 	H 	0.3013	0.0816	0.8371	0.033
Mof_C 	C 	0.32816	0.07776	0.80523	-0.126
Mof_C 	C 	0.34093	0.06076	0.79698	0.059
Mof_H 	H 	0.3532	0.0658	0.7793	0.025
Mof_C 	C 	0.33541	0.03624	0.8151	-0.124
Mof_H 	H 	0.344	0.0249	0.8096	0.073
Mof_C 	C 	0.225	0.89509	0.28995	0.418
Mof_C 	C 	0.3053	0.85299	0.8914	0.025
Mof_C 	C 	0.3289	0.8618	0.8706	-0.095
Mof_H 	H 	0.3416	0.8819	0.8666	0.058
Mof_C 	C 	0.3336	0.8407	0.8557	0.026
Mof_H 	H 	0.3494	0.8466	0.8418	0.012
Mof_C 	C 	0.3146	0.8107	0.8616	-0.073
Mof_C 	C 	0.291	0.8019	0.8825	0.009
Mof_H 	H 	0.2783	0.7818	0.8865	0.014
Mof_C 	C 	0.2864	0.8231	0.8974	-0.077
Mof_H 	H 	0.2706	0.8171	0.9113	0.053
Mof_C 	C 	0.31676	0.78818	0.84503	0.19
Mof_C 	C 	0.34114	0.79687	0.82535	-0.278
Mof_H 	H 	0.3543	0.8169	0.8219	0.126
Mof_C 	C 	0.34581	0.77557	0.81086	0.258
Mof_H 	H 	0.3621	0.7814	0.7977	-0.041
Mof_C 	C 	0.32612	0.74559	0.81605	-0.4
Mof_C 	C 	0.30175	0.73691	0.83573	0.272
Mof_H 	H 	0.2886	0.7169	0.8392	-0.043
Mof_C 	C 	0.29707	0.75821	0.85021	-0.285
Mof_H 	H 	0.2808	0.7524	0.8634	0.128
Mof_C 	C 	0.3304	0.7242	0.7956	1.007
Mof_C 	C 	0.25154	0.79232	0.25256	0.1
Mof_H 	H 	0.2619	0.8129	0.2544	0.011
Mof_C 	C 	0.26733	0.77744	0.25261	-0.151
Mof_H 	H 	0.2879	0.7883	0.2544	0.081
Mof_C 	C 	0.30049	0.74299	0.255	-0.083
Mof_H 	H 	0.3106	0.763	0.2601	0.057
Mof_C 	C 	0.31591	0.72804	0.2527	-0.001
Mof_H 	H 	0.3365	0.7385	0.2531	0.026
Mof_C 	C 	0.107	0.9007	0.27719	0.123
Mof_H 	H 	0.1154	0.8987	0.2957	0.004
Mof_C 	C 	0.0909	0.9157	0.27721	-0.179
Mof_H 	H 	0.0876	0.9225	0.2962	0.095
Mof_C 	C 	0.03344	0.92394	0.2421	-0.043
Mof_H 	H 	0.0232	0.9037	0.238	0.046
Mof_C 	C 	0.019	0.9396	0.2402	-0.05
Mof_H 	H 	0.9998	0.9308	0.2321	0.045
Mof_O 	O 	0.3053	0.6981	0.7954	-0.526
Mof_O 	O 	0.3529	0.72814	0.7902	-0.563
Mof_C 	C 	0.3057	0.8505	0.8594	-0.008
Mof_H 	H 	0.3027	0.863	0.8461	0.028
Mof_C 	C 	0.3109	0.8287	0.8476	-0.036
Mof_H 	H 	0.3115	0.8278	0.8257	0.039
Mof_C 	C 	0.3077	0.8085	0.8913	-0.018
Mof_H 	H 	0.3019	0.7907	0.9017	0.03
Mof_C 	C 	0.3086	0.832	0.9084	-0.024
Mof_H 	H 	0.3113	0.8335	0.9301	0.034
Mof_Zn	Zn	0.79204	0.64329	0.74201	1.236
Mof_Zn	Zn	0.85258	0.69297	0.71294	1.259
Mof_Zn	Zn	0.63484	0.33908	0.2719	1.13
Mof_O 	O 	0.82346	0.67558	0.67854	-0.499
Mof_O 	O 	0.78168	0.64301	0.69705	-0.477
Mof_O 	O 	0.76612	0.65243	0.76821	-0.476
Mof_O 	O 	0.88395	0.68557	0.70001	-0.494
Mof_O 	O 	0.66899	0.37146	0.30908	-0.51
Mof_O 	O 	0.6609	0.38845	0.26655	-0.539
Mof_O 	O 	0.77961	0.60138	0.75159	-0.529
Mof_O 	O 	0.87173	0.73413	0.7244	-0.491
Mof_O 	O 	0.81761	0.68944	0.73067	-0.435
Mof_C 	C 	0.71569	0.60898	0.45292	0.075
Mof_C 	C 	0.71021	0.62895	0.43663	-0.143
Mof_H 	H 	0.7132	0.6462	0.4465	0.079
Mof_C 	C 	0.70021	0.62312	0.40558	0.078
Mof_C 	C 	0.69569	0.59732	0.39081	-0.137
Mof_H 	H 	0.689	0.5934	0.37	0.074
Mof_C 	C 	0.70117	0.57735	0.4071	0.061
Mof_C 	C 	0.71117	0.58318	0.43815	-0.136
Mof_H 	H 	0.7148	0.5698	0.4491	0.074
Mof_C 	C 	0.75043	0.62878	0.54791	-0.003
Mof_C 	C 	0.7583	0.6518	0.52649	-0.051
Mof_H 	H 	0.7709	0.6713	0.5327	0.048
Mof_C 	C 	0.74737	0.64561	0.4958	-0.047
Mof_H 	H 	0.7526	0.661	0.4815	0.045
Mof_C 	C 	0.72857	0.61642	0.4865	-0.006
Mof_C 	C 	0.72071	0.59342	0.50791	-0.047
Mof_H 	H 	0.7081	0.5739	0.5017	0.045
Mof_C 	C 	0.73163	0.59959	0.53862	-0.051
Mof_H 	H 	0.7264	0.5842	0.5529	0.047
Mof_C 	C 	0.78519	0.64902	0.64305	-0.147
Mof_C 	C 	0.80255	0.66473	0.61731	0.069
Mof_H 	H 	0.8221	0.6796	0.6204	0.019
Mof_C 	C 	0.79067	0.65813	0.587	-0.138
Mof_H 	H 	0.8023	0.6686	0.5698	0.079
Mof_C 	C 	0.76144	0.63582	0.58244	0.074
Mof_C 	C 	0.74408	0.62011	0.60818	-0.138
Mof_H 	H 	0.7245	0.6052	0.6051	0.079
Mof_C 	C 	0.75595	0.62671	0.63849	0.07
Mof_H 	H 	0.7443	0.6162	0.6557	0.021
Mof_C 	C 	0.7998	0.65381	0.6752	0.455
Mof_C 	C 	0.69395	0.64355	0.38735	-0.012
Mof_C 	C 	0.70651	0.67218	0.3994	-0.04
Mof_H 	H 	0.7173	0.677	0.4181	0.041
Mof_C 	C 	0.70291	0.69354	0.38348	-0.056
Mof_H 	H 	0.7113	0.7127	0.3915	0.048
Mof_C 	C 	0.68676	0.68628	0.35551	0.005
Mof_C 	C 	0.6742	0.65765	0.34346	-0.054
Mof_H 	H 	0.6634	0.6528	0.3247	0.045
Mof_C 	C 	0.6778	0.63628	0.35938	-0.041
Mof_H 	H 	0.6694	0.6171	0.3513	0.041
Mof_C 	C 	0.68288	0.71159	0.34148	0.063
Mof_C 	C 	0.69565	0.74135	0.34973	-0.117
Mof_H 	H 	0.7079	0.7486	0.3674	0.07
Mof_C 	C 	0.69013	0.76035	0.33161	0.04
Mof_H 	H 	0.6987	0.7803	0.3371	0.033
Mof_C 	C 	0.67184	0.7496	0.30523	-0.126
Mof_C 	C 	0.65907	0.71983	0.29698	0.059
Mof_H 	H 	0.6468	0.7126	0.2793	0.025
Mof_C 	C 	0.66459	0.70083	0.3151	-0.124
Mof_H 	H 	0.656	0.6809	0.3096	0.073
Mof_C 	C 	0.775	0.67009	0.78995	0.418
Mof_C 	C 	0.6947	0.54769	0.3914	0.025
Mof_C 	C 	0.6711	0.5329	0.3706	-0.095
Mof_H 	H 	0.6584	0.5403	0.3666	0.058
Mof_C 	C 	0.6664	0.5071	0.3557	0.026
Mof_H 	H 	0.6506	0.4972	0.3418	0.012
Mof_C 	C 	0.6854	0.4961	0.3616	-0.073
Mof_C 	C 	0.709	0.5109	0.3825	0.009
Mof_H 	H 	0.7217	0.5035	0.3865	0.014
Mof_C 	C 	0.7136	0.5367	0.3974	-0.077
Mof_H 	H 	0.7294	0.5465	0.4113	0.053
Mof_C 	C 	0.68324	0.47142	0.34503	0.19
Mof_C 	C 	0.65886	0.45573	0.32535	-0.278
Mof_H 	H 	0.6457	0.4626	0.3219	0.126
Mof_C 	C 	0.65419	0.42976	0.31086	0.258
Mof_H 	H 	0.6379	0.4193	0.2977	-0.041
Mof_C 	C 	0.67388	0.41947	0.31605	-0.4
Mof_C 	C 	0.69825	0.43516	0.33573	0.272
Mof_H 	H 	0.7114	0.4283	0.3392	-0.043
Mof_C 	C 	0.70293	0.46114	0.35021	-0.285
Mof_H 	H 	0.7192	0.4716	0.3634	0.128
Mof_C 	C 	0.6696	0.3938	0.2956	1.007
Mof_C 	C 	0.74846	0.54078	0.75256	0.1
Mof_H 	H 	0.7381	0.551	0.7544	0.011
Mof_C 	C 	0.73267	0.51011	0.75261	-0.151
Mof_H 	H 	0.7121	0.5004	0.7544	0.081
Mof_C 	C 	0.69951	0.4425	0.755	-0.083
Mof_H 	H 	0.6894	0.4524	0.7601	0.057
Mof_C 	C 	0.68409	0.41213	0.7527	-0.001
Mof_H 	H 	0.6635	0.402	0.7531	0.026
Mof_C 	C 	0.893	0.7937	0.77719	0.123
Mof_H 	H 	0.8846	0.7833	0.7957	0.004
Mof_C 	C 	0.9091	0.8248	0.77721	-0.179
Mof_H 	H 	0.9124	0.8349	0.7962	0.095
Mof_C 	C 	0.96656	0.8905	0.7421	-0.043
Mof_H 	H 	0.9768	0.8805	0.738	0.046
Mof_C 	C 	0.981	0.9206	0.7402	-0.05
Mof_H 	H 	0.0002	0.931	0.7321	0.045
Mof_O 	O 	0.6947	0.3928	0.2954	-0.526
Mof_O 	O 	0.6471	0.37524	0.2902	-0.563
Mof_C 	C 	0.6943	0.5448	0.3594	-0.008
Mof_H 	H 	0.6973	0.5603	0.3461	0.028
Mof_C 	C 	0.6891	0.5178	0.3476	-0.036
Mof_H 	H 	0.6885	0.5163	0.3257	0.039
Mof_C 	C 	0.6923	0.5008	0.3913	-0.018
Mof_H 	H 	0.6981	0.4888	0.4017	0.03
Mof_C 	C 	0.6914	0.5234	0.4084	-0.024
Mof_H 	H 	0.6887	0.5222	0.4301	0.034
Mof_Zn	Zn	0.35671	0.14874	0.74201	1.236
Mof_Zn	Zn	0.30703	0.15962	0.71294	1.259
Mof_Zn	Zn	0.66092	0.29576	0.2719	1.13
Mof_O 	O 	0.32442	0.14788	0.67854	-0.499
Mof_O 	O 	0.35699	0.13867	0.69705	-0.477
Mof_O 	O 	0.34757	0.11369	0.76821	-0.476
Mof_O 	O 	0.31443	0.19838	0.70001	-0.494
Mof_O 	O 	0.62854	0.29753	0.30908	-0.51
Mof_O 	O 	0.61155	0.27245	0.26655	-0.539
Mof_O 	O 	0.39862	0.17823	0.75159	-0.529
Mof_O 	O 	0.26587	0.1376	0.7244	-0.491
Mof_O 	O 	0.31056	0.12817	0.73067	-0.435
Mof_C 	C 	0.39102	0.10671	0.45292	0.075
Mof_C 	C 	0.37105	0.08126	0.43663	-0.143
Mof_H 	H 	0.3538	0.067	0.4465	0.079
Mof_C 	C 	0.37688	0.07709	0.40558	0.078
Mof_C 	C 	0.40268	0.09837	0.39081	-0.137
Mof_H 	H 	0.4066	0.0956	0.37	0.074
Mof_C 	C 	0.42265	0.12382	0.4071	0.061
Mof_C 	C 	0.41682	0.12799	0.43815	-0.136
Mof_H 	H 	0.4302	0.145	0.4491	0.074
Mof_C 	C 	0.37122	0.12165	0.54791	-0.003
Mof_C 	C 	0.3482	0.1065	0.52649	-0.051
Mof_H 	H 	0.3287	0.0996	0.5327	0.048
Mof_C 	C 	0.35439	0.10176	0.4958	-0.047
Mof_H 	H 	0.339	0.0916	0.4815	0.045
Mof_C 	C 	0.38358	0.11215	0.4865	-0.006
Mof_C 	C 	0.40658	0.12729	0.50791	-0.047
Mof_H 	H 	0.4261	0.1342	0.5017	0.045
Mof_C 	C 	0.40041	0.13204	0.53862	-0.051
Mof_H 	H 	0.4158	0.1422	0.5529	0.047
Mof_C 	C 	0.35098	0.13617	0.64305	-0.147
Mof_C 	C 	0.33527	0.13782	0.61731	0.069
Mof_H 	H 	0.3204	0.1425	0.6204	0.019
Mof_C 	C 	0.34187	0.13254	0.587	-0.138
Mof_H 	H 	0.3314	0.1337	0.5698	0.079
Mof_C 	C 	0.36418	0.12562	0.58244	0.074
Mof_C 	C 	0.37989	0.12397	0.60818	-0.138
Mof_H 	H 	0.3948	0.1193	0.6051	0.079
Mof_C 	C 	0.37329	0.12924	0.63849	0.07
Mof_H 	H 	0.3838	0.1281	0.6557	0.021
Mof_C 	C 	0.34619	0.14599	0.6752	0.455
Mof_C 	C 	0.35645	0.0504	0.38735	-0.012
Mof_C 	C 	0.32782	0.03433	0.3994	-0.04
Mof_H 	H 	0.323	0.0403	0.4181	0.041
Mof_C 	C 	0.30646	0.00937	0.38348	-0.056
Mof_H 	H 	0.2873	0.9986	0.3915	0.048
Mof_C 	C 	0.31372	0.00048	0.35551	0.005
Mof_C 	C 	0.34235	0.01655	0.34346	-0.054
Mof_H 	H 	0.3472	0.0106	0.3247	0.045
Mof_C 	C 	0.36372	0.04152	0.35938	-0.041
Mof_H 	H 	0.3829	0.0523	0.3513	0.041
Mof_C 	C 	0.28841	0.97129	0.34148	0.063
Mof_C 	C 	0.25865	0.9543	0.34973	-0.117
Mof_H 	H 	0.2514	0.9593	0.3674	0.07
Mof_C 	C 	0.23965	0.92978	0.33161	0.04
Mof_H 	H 	0.2197	0.9184	0.3371	0.033
Mof_C 	C 	0.2504	0.92224	0.30523	-0.126
Mof_C 	C 	0.28017	0.93924	0.29698	0.059
Mof_H 	H 	0.2874	0.9342	0.2793	0.025
Mof_C 	C 	0.29917	0.96376	0.3151	-0.124
Mof_H 	H 	0.3191	0.9751	0.3096	0.073
Mof_C 	C 	0.32991	0.10491	0.78995	0.418
Mof_C 	C 	0.45231	0.14701	0.3914	0.025
Mof_C 	C 	0.4671	0.1382	0.3706	-0.095
Mof_H 	H 	0.4597	0.1181	0.3666	0.058
Mof_C 	C 	0.4929	0.1593	0.3557	0.026
Mof_H 	H 	0.5028	0.1534	0.3418	0.012
Mof_C 	C 	0.5039	0.1893	0.3616	-0.073
Mof_C 	C 	0.4891	0.1981	0.3825	0.009
Mof_H 	H 	0.4965	0.2182	0.3865	0.014
Mof_C 	C 	0.4633	0.1769	0.3974	-0.077
Mof_H 	H 	0.4535	0.1829	0.4113	0.053
Mof_C 	C 	0.52858	0.21182	0.34503	0.19
Mof_C 	C 	0.54427	0.20313	0.32535	-0.278
Mof_H 	H 	0.5374	0.1831	0.3219	0.126
Mof_C 	C 	0.57024	0.22443	0.31086	0.258
Mof_H 	H 	0.5807	0.2186	0.2977	-0.041
Mof_C 	C 	0.58053	0.25441	0.31605	-0.4
Mof_C 	C 	0.56484	0.26309	0.33573	0.272
Mof_H 	H 	0.5717	0.2831	0.3392	-0.043
Mof_C 	C 	0.53886	0.24179	0.35021	-0.285
Mof_H 	H 	0.5284	0.2476	0.3634	0.128
Mof_C 	C 	0.6062	0.2758	0.2956	1.007
Mof_C 	C 	0.45922	0.20768	0.75256	0.1
Mof_H 	H 	0.449	0.1871	0.7544	0.011
Mof_C 	C 	0.48989	0.22256	0.75261	-0.151
Mof_H 	H 	0.4996	0.2117	0.7544	0.081
Mof_C 	C 	0.5575	0.25701	0.755	-0.083
Mof_H 	H 	0.5476	0.237	0.7601	0.057
Mof_C 	C 	0.58787	0.27196	0.7527	-0.001
Mof_H 	H 	0.598	0.2615	0.7531	0.026
Mof_C 	C 	0.2063	0.0993	0.77719	0.123
Mof_H 	H 	0.2167	0.1013	0.7957	0.004
Mof_C 	C 	0.1752	0.0843	0.77721	-0.179
Mof_H 	H 	0.1651	0.0775	0.7962	0.095
Mof_C 	C 	0.1095	0.07606	0.7421	-0.043
Mof_H 	H 	0.1195	0.0963	0.738	0.046
Mof_C 	C 	0.0794	0.0604	0.7402	-0.05
Mof_H 	H 	0.069	0.0692	0.7321	0.045
Mof_O 	O 	0.6072	0.3019	0.2954	-0.526
Mof_O 	O 	0.62476	0.27186	0.2902	-0.563
Mof_C 	C 	0.4552	0.1495	0.3594	-0.008
Mof_H 	H 	0.4397	0.137	0.3461	0.028
Mof_C 	C 	0.4822	0.1713	0.3476	-0.036
Mof_H 	H 	0.4837	0.1722	0.3257	0.039
Mof_C 	C 	0.4992	0.1915	0.3913	-0.018
Mof_H 	H 	0.5112	0.2093	0.4017	0.03
Mof_C 	C 	0.4766	0.168	0.4084	-0.024
Mof_H 	H 	0.4778	0.1665	0.4301	0.034
Mof_Zn	Zn	0.85126	0.20796	0.74201	1.236
Mof_Zn	Zn	0.84038	0.14742	0.71294	1.259
Mof_Zn	Zn	0.70424	0.36516	0.2719	1.13
Mof_O 	O 	0.85212	0.17654	0.67854	-0.499
Mof_O 	O 	0.86133	0.21832	0.69705	-0.477
Mof_O 	O 	0.88631	0.23388	0.76821	-0.476
Mof_O 	O 	0.80162	0.11605	0.70001	-0.494
Mof_O 	O 	0.70247	0.33101	0.30908	-0.51
Mof_O 	O 	0.72755	0.3391	0.26655	-0.539
Mof_O 	O 	0.82177	0.22039	0.75159	-0.529
Mof_O 	O 	0.8624	0.12827	0.7244	-0.491
Mof_O 	O 	0.87183	0.18239	0.73067	-0.435
Mof_C 	C 	0.89329	0.28431	0.45292	0.075
Mof_C 	C 	0.91874	0.28979	0.43663	-0.143
Mof_H 	H 	0.933	0.2868	0.4465	0.079
Mof_C 	C 	0.92291	0.29979	0.40558	0.078
Mof_C 	C 	0.90163	0.30431	0.39081	-0.137
Mof_H 	H 	0.9044	0.311	0.37	0.074
Mof_C 	C 	0.87618	0.29883	0.4071	0.061
Mof_C 	C 	0.87201	0.28883	0.43815	-0.136
Mof_H 	H 	0.855	0.2852	0.4491	0.074
Mof_C 	C 	0.87835	0.24957	0.54791	-0.003
Mof_C 	C 	0.8935	0.2417	0.52649	-0.051
Mof_H 	H 	0.9004	0.2291	0.5327	0.048
Mof_C 	C 	0.89824	0.25263	0.4958	-0.047
Mof_H 	H 	0.9084	0.2474	0.4815	0.045
Mof_C 	C 	0.88785	0.27143	0.4865	-0.006
Mof_C 	C 	0.87271	0.27929	0.50791	-0.047
Mof_H 	H 	0.8658	0.2919	0.5017	0.045
Mof_C 	C 	0.86796	0.26837	0.53862	-0.051
Mof_H 	H 	0.8578	0.2736	0.5529	0.047
Mof_C 	C 	0.86383	0.21481	0.64305	-0.147
Mof_C 	C 	0.86218	0.19745	0.61731	0.069
Mof_H 	H 	0.8575	0.1779	0.6204	0.019
Mof_C 	C 	0.86746	0.20933	0.587	-0.138
Mof_H 	H 	0.8663	0.1977	0.5698	0.079
Mof_C 	C 	0.87438	0.23856	0.58244	0.074
Mof_C 	C 	0.87603	0.25592	0.60818	-0.138
Mof_H 	H 	0.8807	0.2755	0.6051	0.079
Mof_C 	C 	0.87076	0.24405	0.63849	0.07
Mof_H 	H 	0.8719	0.2557	0.6557	0.021
Mof_C 	C 	0.85401	0.2002	0.6752	0.455
Mof_C 	C 	0.9496	0.30605	0.38735	-0.012
Mof_C 	C 	0.96567	0.29349	0.3994	-0.04
Mof_H 	H 	0.9597	0.2827	0.4181	0.041
Mof_C 	C 	0.99063	0.29709	0.38348	-0.056
Mof_H 	H 	0.0014	0.2887	0.3915	0.048
Mof_C 	C 	0.99952	0.31324	0.35551	0.005
Mof_C 	C 	0.98345	0.3258	0.34346	-0.054
Mof_H 	H 	0.9894	0.3366	0.3247	0.045
Mof_C 	C 	0.95848	0.3222	0.35938	-0.041
Mof_H 	H 	0.9477	0.3306	0.3513	0.041
Mof_C 	C 	0.02871	0.31712	0.34148	0.063
Mof_C 	C 	0.0457	0.30435	0.34973	-0.117
Mof_H 	H 	0.0407	0.2921	0.3674	0.07
Mof_C 	C 	0.07022	0.30987	0.33161	0.04
Mof_H 	H 	0.0816	0.3013	0.3371	0.033
Mof_C 	C 	0.07776	0.32816	0.30523	-0.126
Mof_C 	C 	0.06076	0.34093	0.29698	0.059
Mof_H 	H 	0.0658	0.3532	0.2793	0.025
Mof_C 	C 	0.03624	0.33541	0.3151	-0.124
Mof_H 	H 	0.0249	0.344	0.3096	0.073
Mof_C 	C 	0.89509	0.225	0.78995	0.418
Mof_C 	C 	0.85299	0.3053	0.3914	0.025
Mof_C 	C 	0.8618	0.3289	0.3706	-0.095
Mof_H 	H 	0.8819	0.3416	0.3666	0.058
Mof_C 	C 	0.8407	0.3336	0.3557	0.026
Mof_H 	H 	0.8466	0.3494	0.3418	0.012
Mof_C 	C 	0.8107	0.3146	0.3616	-0.073
Mof_C 	C 	0.8019	0.291	0.3825	0.009
Mof_H 	H 	0.7818	0.2783	0.3865	0.014
Mof_C 	C 	0.8231	0.2864	0.3974	-0.077
Mof_H 	H 	0.8171	0.2706	0.4113	0.053
Mof_C 	C 	0.78818	0.31676	0.34503	0.19
Mof_C 	C 	0.79687	0.34114	0.32535	-0.278
Mof_H 	H 	0.8169	0.3543	0.3219	0.126
Mof_C 	C 	0.77557	0.34581	0.31086	0.258
Mof_H 	H 	0.7814	0.3621	0.2977	-0.041
Mof_C 	C 	0.74559	0.32612	0.31605	-0.4
Mof_C 	C 	0.73691	0.30175	0.33573	0.272
Mof_H 	H 	0.7169	0.2886	0.3392	-0.043
Mof_C 	C 	0.75821	0.29707	0.35021	-0.285
Mof_H 	H 	0.7524	0.2808	0.3634	0.128
Mof_C 	C 	0.7242	0.3304	0.2956	1.007
Mof_C 	C 	0.79232	0.25154	0.75256	0.1
Mof_H 	H 	0.8129	0.2619	0.7544	0.011
Mof_C 	C 	0.77744	0.26733	0.75261	-0.151
Mof_H 	H 	0.7883	0.2879	0.7544	0.081
Mof_C 	C 	0.74299	0.30049	0.755	-0.083
Mof_H 	H 	0.763	0.3106	0.7601	0.057
Mof_C 	C 	0.72804	0.31591	0.7527	-0.001
Mof_H 	H 	0.7385	0.3365	0.7531	0.026
Mof_C 	C 	0.9007	0.107	0.77719	0.123
Mof_H 	H 	0.8987	0.1154	0.7957	0.004
Mof_C 	C 	0.9157	0.0909	0.77721	-0.179
Mof_H 	H 	0.9225	0.0876	0.7962	0.095
Mof_C 	C 	0.92394	0.03344	0.7421	-0.043
Mof_H 	H 	0.9037	0.0232	0.738	0.046
Mof_C 	C 	0.9396	0.019	0.7402	-0.05
Mof_H 	H 	0.9308	0.9998	0.7321	0.045
Mof_O 	O 	0.6981	0.3053	0.2954	-0.526
Mof_O 	O 	0.72814	0.3529	0.2902	-0.563
Mof_C 	C 	0.8505	0.3057	0.3594	-0.008
Mof_H 	H 	0.863	0.3027	0.3461	0.028
Mof_C 	C 	0.8287	0.3109	0.3476	-0.036
Mof_H 	H 	0.8278	0.3115	0.3257	0.039
Mof_C 	C 	0.8085	0.3077	0.3913	-0.018
Mof_H 	H 	0.7907	0.3019	0.4017	0.03
Mof_C 	C 	0.832	0.3086	0.4084	-0.024
Mof_H 	H 	0.8335	0.3113	0.4301	0.034
Mof_Zn	Zn	0.35671	0.20796	0.75799	1.236
Mof_Zn	Zn	0.30703	0.14742	0.78706	1.259
Mof_Zn	Zn	0.66092	0.36516	0.2281	1.13
Mof_O 	O 	0.32442	0.17654	0.82146	-0.499
Mof_O 	O 	0.35699	0.21832	0.80295	-0.477
Mof_O 	O 	0.34757	0.23388	0.73179	-0.476
Mof_O 	O 	0.31443	0.11605	0.79999	-0.494
Mof_O 	O 	0.62854	0.33101	0.19092	-0.51
Mof_O 	O 	0.61155	0.3391	0.23345	-0.539
Mof_O 	O 	0.39862	0.22039	0.74841	-0.529
Mof_O 	O 	0.26587	0.12827	0.7756	-0.491
Mof_O 	O 	0.31056	0.18239	0.76933	-0.435
Mof_C 	C 	0.39102	0.28431	0.04708	0.075
Mof_C 	C 	0.37105	0.28979	0.06337	-0.143
Mof_H 	H 	0.3538	0.2868	0.0535	0.079
Mof_C 	C 	0.37688	0.29979	0.09442	0.078
Mof_C 	C 	0.40268	0.30431	0.10919	-0.137
Mof_H 	H 	0.4066	0.311	0.13	0.074
Mof_C 	C 	0.42265	0.29883	0.0929	0.061
Mof_C 	C 	0.41682	0.28883	0.06185	-0.136
Mof_H 	H 	0.4302	0.2852	0.0509	0.074
Mof_C 	C 	0.37122	0.24957	0.95209	-0.003
Mof_C 	C 	0.3482	0.2417	0.97351	-0.051
Mof_H 	H 	0.3287	0.2291	0.9673	0.048
Mof_C 	C 	0.35439	0.25263	0.0042	-0.047
Mof_H 	H 	0.339	0.2474	0.0185	0.045
Mof_C 	C 	0.38358	0.27143	0.0135	-0.006
Mof_C 	C 	0.40658	0.27929	0.99209	-0.047
Mof_H 	H 	0.4261	0.2919	0.9983	0.045
Mof_C 	C 	0.40041	0.26837	0.96138	-0.051
Mof_H 	H 	0.4158	0.2736	0.9471	0.047
Mof_C 	C 	0.35098	0.21481	0.85695	-0.147
Mof_C 	C 	0.33527	0.19745	0.88269	0.069
Mof_H 	H 	0.3204	0.1779	0.8796	0.019
Mof_C 	C 	0.34187	0.20933	0.913	-0.138
Mof_H 	H 	0.3314	0.1977	0.9302	0.079
Mof_C 	C 	0.36418	0.23856	0.91756	0.074
Mof_C 	C 	0.37989	0.25592	0.89182	-0.138
Mof_H 	H 	0.3948	0.2755	0.8949	0.079
Mof_C 	C 	0.37329	0.24405	0.86151	0.07
Mof_H 	H 	0.3838	0.2557	0.8443	0.021
Mof_C 	C 	0.34619	0.2002	0.8248	0.455
Mof_C 	C 	0.35645	0.30605	0.11265	-0.012
Mof_C 	C 	0.32782	0.29349	0.1006	-0.04
Mof_H 	H 	0.323	0.2827	0.0819	0.041
Mof_C 	C 	0.30646	0.29709	0.11652	-0.056
Mof_H 	H 	0.2873	0.2887	0.1085	0.048
Mof_C 	C 	0.31372	0.31324	0.14449	0.005
Mof_C 	C 	0.34235	0.3258	0.15654	-0.054
Mof_H 	H 	0.3472	0.3366	0.1753	0.045
Mof_C 	C 	0.36372	0.3222	0.14062	-0.041
Mof_H 	H 	0.3829	0.3306	0.1487	0.041
Mof_C 	C 	0.28841	0.31712	0.15852	0.063
Mof_C 	C 	0.25865	0.30435	0.15027	-0.117
Mof_H 	H 	0.2514	0.2921	0.1326	0.07
Mof_C 	C 	0.23965	0.30987	0.16839	0.04
Mof_H 	H 	0.2197	0.3013	0.1629	0.033
Mof_C 	C 	0.2504	0.32816	0.19477	-0.126
Mof_C 	C 	0.28017	0.34093	0.20302	0.059
Mof_H 	H 	0.2874	0.3532	0.2207	0.025
Mof_C 	C 	0.29917	0.33541	0.1849	-0.124
Mof_H 	H 	0.3191	0.344	0.1904	0.073
Mof_C 	C 	0.32991	0.225	0.71005	0.418
Mof_C 	C 	0.45231	0.3053	0.1086	0.025
Mof_C 	C 	0.4671	0.3289	0.1294	-0.095
Mof_H 	H 	0.4597	0.3416	0.1334	0.058
Mof_C 	C 	0.4929	0.3336	0.1443	0.026
Mof_H 	H 	0.5028	0.3494	0.1582	0.012
Mof_C 	C 	0.5039	0.3146	0.1384	-0.073
Mof_C 	C 	0.4891	0.291	0.1175	0.009
Mof_H 	H 	0.4965	0.2783	0.1135	0.014
Mof_C 	C 	0.4633	0.2864	0.1026	-0.077
Mof_H 	H 	0.4535	0.2706	0.0887	0.053
Mof_C 	C 	0.52858	0.31676	0.15497	0.19
Mof_C 	C 	0.54427	0.34114	0.17465	-0.278
Mof_H 	H 	0.5374	0.3543	0.1781	0.126
Mof_C 	C 	0.57024	0.34581	0.18914	0.258
Mof_H 	H 	0.5807	0.3621	0.2023	-0.041
Mof_C 	C 	0.58053	0.32612	0.18395	-0.4
Mof_C 	C 	0.56484	0.30175	0.16427	0.272
Mof_H 	H 	0.5717	0.2886	0.1608	-0.043
Mof_C 	C 	0.53886	0.29707	0.14979	-0.285
Mof_H 	H 	0.5284	0.2808	0.1366	0.128
Mof_C 	C 	0.6062	0.3304	0.2044	1.007
Mof_C 	C 	0.45922	0.25154	0.74744	0.1
Mof_H 	H 	0.449	0.2619	0.7456	0.011
Mof_C 	C 	0.48989	0.26733	0.74739	-0.151
Mof_H 	H 	0.4996	0.2879	0.7456	0.081
Mof_C 	C 	0.5575	0.30049	0.745	-0.083
Mof_H 	H 	0.5476	0.3106	0.7399	0.057
Mof_C 	C 	0.58787	0.31591	0.7473	-0.001
Mof_H 	H 	0.598	0.3365	0.7469	0.026
Mof_C 	C 	0.2063	0.107	0.72281	0.123
Mof_H 	H 	0.2167	0.1154	0.7043	0.004
Mof_C 	C 	0.1752	0.0909	0.72279	-0.179
Mof_H 	H 	0.1651	0.0876	0.7038	0.095
Mof_C 	C 	0.1095	0.03344	0.7579	-0.043
Mof_H 	H 	0.1195	0.0232	0.762	0.046
Mof_C 	C 	0.0794	0.019	0.7598	-0.05
Mof_H 	H 	0.069	0.9998	0.7679	0.045
Mof_O 	O 	0.6072	0.3053	0.2046	-0.526
Mof_O 	O 	0.62476	0.3529	0.2098	-0.563
Mof_C 	C 	0.4552	0.3057	0.1406	-0.008
Mof_H 	H 	0.4397	0.3027	0.1539	0.028
Mof_C 	C 	0.4822	0.3109	0.1524	-0.036
Mof_H 	H 	0.4837	0.3115	0.1743	0.039
Mof_C 	C 	0.4992	0.3077	0.1087	-0.018
Mof_H 	H 	0.5112	0.3019	0.0983	0.03
Mof_C 	C 	0.4766	0.3086	0.0916	-0.024
Mof_H 	H 	0.4778	0.3113	0.0699	0.034
Mof_Zn	Zn	0.85126	0.64329	0.75799	1.236
Mof_Zn	Zn	0.84038	0.69297	0.78706	1.259
Mof_Zn	Zn	0.70424	0.33908	0.2281	1.13
Mof_O 	O 	0.85212	0.67558	0.82146	-0.499
Mof_O 	O 	0.86133	0.64301	0.80295	-0.477
Mof_O 	O 	0.88631	0.65243	0.73179	-0.476
Mof_O 	O 	0.80162	0.68557	0.79999	-0.494
Mof_O 	O 	0.70247	0.37146	0.19092	-0.51
Mof_O 	O 	0.72755	0.38845	0.23345	-0.539
Mof_O 	O 	0.82177	0.60138	0.74841	-0.529
Mof_O 	O 	0.8624	0.73413	0.7756	-0.491
Mof_O 	O 	0.87183	0.68944	0.76933	-0.435
Mof_C 	C 	0.89329	0.60898	0.04708	0.075
Mof_C 	C 	0.91874	0.62895	0.06337	-0.143
Mof_H 	H 	0.933	0.6462	0.0535	0.079
Mof_C 	C 	0.92291	0.62312	0.09442	0.078
Mof_C 	C 	0.90163	0.59732	0.10919	-0.137
Mof_H 	H 	0.9044	0.5934	0.13	0.074
Mof_C 	C 	0.87618	0.57735	0.0929	0.061
Mof_C 	C 	0.87201	0.58318	0.06185	-0.136
Mof_H 	H 	0.855	0.5698	0.0509	0.074
Mof_C 	C 	0.87835	0.62878	0.95209	-0.003
Mof_C 	C 	0.8935	0.6518	0.97351	-0.051
Mof_H 	H 	0.9004	0.6713	0.9673	0.048
Mof_C 	C 	0.89824	0.64561	0.0042	-0.047
Mof_H 	H 	0.9084	0.661	0.0185	0.045
Mof_C 	C 	0.88785	0.61642	0.0135	-0.006
Mof_C 	C 	0.87271	0.59342	0.99209	-0.047
Mof_H 	H 	0.8658	0.5739	0.9983	0.045
Mof_C 	C 	0.86796	0.59959	0.96138	-0.051
Mof_H 	H 	0.8578	0.5842	0.9471	0.047
Mof_C 	C 	0.86383	0.64902	0.85695	-0.147
Mof_C 	C 	0.86218	0.66473	0.88269	0.069
Mof_H 	H 	0.8575	0.6796	0.8796	0.019
Mof_C 	C 	0.86746	0.65813	0.913	-0.138
Mof_H 	H 	0.8663	0.6686	0.9302	0.079
Mof_C 	C 	0.87438	0.63582	0.91756	0.074
Mof_C 	C 	0.87603	0.62011	0.89182	-0.138
Mof_H 	H 	0.8807	0.6052	0.8949	0.079
Mof_C 	C 	0.87076	0.62671	0.86151	0.07
Mof_H 	H 	0.8719	0.6162	0.8443	0.021
Mof_C 	C 	0.85401	0.65381	0.8248	0.455
Mof_C 	C 	0.9496	0.64355	0.11265	-0.012
Mof_C 	C 	0.96567	0.67218	0.1006	-0.04
Mof_H 	H 	0.9597	0.677	0.0819	0.041
Mof_C 	C 	0.99063	0.69354	0.11652	-0.056
Mof_H 	H 	0.0014	0.7127	0.1085	0.048
Mof_C 	C 	0.99952	0.68628	0.14449	0.005
Mof_C 	C 	0.98345	0.65765	0.15654	-0.054
Mof_H 	H 	0.9894	0.6528	0.1753	0.045
Mof_C 	C 	0.95848	0.63628	0.14062	-0.041
Mof_H 	H 	0.9477	0.6171	0.1487	0.041
Mof_C 	C 	0.02871	0.71159	0.15852	0.063
Mof_C 	C 	0.0457	0.74135	0.15027	-0.117
Mof_H 	H 	0.0407	0.7486	0.1326	0.07
Mof_C 	C 	0.07022	0.76035	0.16839	0.04
Mof_H 	H 	0.0816	0.7803	0.1629	0.033
Mof_C 	C 	0.07776	0.7496	0.19477	-0.126
Mof_C 	C 	0.06076	0.71983	0.20302	0.059
Mof_H 	H 	0.0658	0.7126	0.2207	0.025
Mof_C 	C 	0.03624	0.70083	0.1849	-0.124
Mof_H 	H 	0.0249	0.6809	0.1904	0.073
Mof_C 	C 	0.89509	0.67009	0.71005	0.418
Mof_C 	C 	0.85299	0.54769	0.1086	0.025
Mof_C 	C 	0.8618	0.5329	0.1294	-0.095
Mof_H 	H 	0.8819	0.5403	0.1334	0.058
Mof_C 	C 	0.8407	0.5071	0.1443	0.026
Mof_H 	H 	0.8466	0.4972	0.1582	0.012
Mof_C 	C 	0.8107	0.4961	0.1384	-0.073
Mof_C 	C 	0.8019	0.5109	0.1175	0.009
Mof_H 	H 	0.7818	0.5035	0.1135	0.014
Mof_C 	C 	0.8231	0.5367	0.1026	-0.077
Mof_H 	H 	0.8171	0.5465	0.0887	0.053
Mof_C 	C 	0.78818	0.47142	0.15497	0.19
Mof_C 	C 	0.79687	0.45573	0.17465	-0.278
Mof_H 	H 	0.8169	0.4626	0.1781	0.126
Mof_C 	C 	0.77557	0.42976	0.18914	0.258
Mof_H 	H 	0.7814	0.4193	0.2023	-0.041
Mof_C 	C 	0.74559	0.41947	0.18395	-0.4
Mof_C 	C 	0.73691	0.43516	0.16427	0.272
Mof_H 	H 	0.7169	0.4283	0.1608	-0.043
Mof_C 	C 	0.75821	0.46114	0.14979	-0.285
Mof_H 	H 	0.7524	0.4716	0.1366	0.128
Mof_C 	C 	0.7242	0.3938	0.2044	1.007
Mof_C 	C 	0.79232	0.54078	0.74744	0.1
Mof_H 	H 	0.8129	0.551	0.7456	0.011
Mof_C 	C 	0.77744	0.51011	0.74739	-0.151
Mof_H 	H 	0.7883	0.5004	0.7456	0.081
Mof_C 	C 	0.74299	0.4425	0.745	-0.083
Mof_H 	H 	0.763	0.4524	0.7399	0.057
Mof_C 	C 	0.72804	0.41213	0.7473	-0.001
Mof_H 	H 	0.7385	0.402	0.7469	0.026
Mof_C 	C 	0.9007	0.7937	0.72281	0.123
Mof_H 	H 	0.8987	0.7833	0.7043	0.004
Mof_C 	C 	0.9157	0.8248	0.72279	-0.179
Mof_H 	H 	0.9225	0.8349	0.7038	0.095
Mof_C 	C 	0.92394	0.8905	0.7579	-0.043
Mof_H 	H 	0.9037	0.8805	0.762	0.046
Mof_C 	C 	0.9396	0.9206	0.7598	-0.05
Mof_H 	H 	0.9308	0.931	0.7679	0.045
Mof_O 	O 	0.6981	0.3928	0.2046	-0.526
Mof_O 	O 	0.72814	0.37524	0.2098	-0.563
Mof_C 	C 	0.8505	0.5448	0.1406	-0.008
Mof_H 	H 	0.863	0.5603	0.1539	0.028
Mof_C 	C 	0.8287	0.5178	0.1524	-0.036
Mof_H 	H 	0.8278	0.5163	0.1743	0.039
Mof_C 	C 	0.8085	0.5008	0.1087	-0.018
Mof_H 	H 	0.7907	0.4888	0.0983	0.03
Mof_C 	C 	0.832	0.5234	0.0916	-0.024
Mof_H 	H 	0.8335	0.5222	0.0699	0.034
Mof_Zn	Zn	0.79204	0.14874	0.75799	1.236
Mof_Zn	Zn	0.85258	0.15962	0.78706	1.259
Mof_Zn	Zn	0.63484	0.29576	0.2281	1.13
Mof_O 	O 	0.82346	0.14788	0.82146	-0.499
Mof_O 	O 	0.78168	0.13867	0.80295	-0.477
Mof_O 	O 	0.76612	0.11369	0.73179	-0.476
Mof_O 	O 	0.88395	0.19838	0.79999	-0.494
Mof_O 	O 	0.66899	0.29753	0.19092	-0.51
Mof_O 	O 	0.6609	0.27245	0.23345	-0.539
Mof_O 	O 	0.77961	0.17823	0.74841	-0.529
Mof_O 	O 	0.87173	0.1376	0.7756	-0.491
Mof_O 	O 	0.81761	0.12817	0.76933	-0.435
Mof_C 	C 	0.71569	0.10671	0.04708	0.075
Mof_C 	C 	0.71021	0.08126	0.06337	-0.143
Mof_H 	H 	0.7132	0.067	0.0535	0.079
Mof_C 	C 	0.70021	0.07709	0.09442	0.078
Mof_C 	C 	0.69569	0.09837	0.10919	-0.137
Mof_H 	H 	0.689	0.0956	0.13	0.074
Mof_C 	C 	0.70117	0.12382	0.0929	0.061
Mof_C 	C 	0.71117	0.12799	0.06185	-0.136
Mof_H 	H 	0.7148	0.145	0.0509	0.074
Mof_C 	C 	0.75043	0.12165	0.95209	-0.003
Mof_C 	C 	0.7583	0.1065	0.97351	-0.051
Mof_H 	H 	0.7709	0.0996	0.9673	0.048
Mof_C 	C 	0.74737	0.10176	0.0042	-0.047
Mof_H 	H 	0.7526	0.0916	0.0185	0.045
Mof_C 	C 	0.72857	0.11215	0.0135	-0.006
Mof_C 	C 	0.72071	0.12729	0.99209	-0.047
Mof_H 	H 	0.7081	0.1342	0.9983	0.045
Mof_C 	C 	0.73163	0.13204	0.96138	-0.051
Mof_H 	H 	0.7264	0.1422	0.9471	0.047
Mof_C 	C 	0.78519	0.13617	0.85695	-0.147
Mof_C 	C 	0.80255	0.13782	0.88269	0.069
Mof_H 	H 	0.8221	0.1425	0.8796	0.019
Mof_C 	C 	0.79067	0.13254	0.913	-0.138
Mof_H 	H 	0.8023	0.1337	0.9302	0.079
Mof_C 	C 	0.76144	0.12562	0.91756	0.074
Mof_C 	C 	0.74408	0.12397	0.89182	-0.138
Mof_H 	H 	0.7245	0.1193	0.8949	0.079
Mof_C 	C 	0.75595	0.12924	0.86151	0.07
Mof_H 	H 	0.7443	0.1281	0.8443	0.021
Mof_C 	C 	0.7998	0.14599	0.8248	0.455
Mof_C 	C 	0.69395	0.0504	0.11265	-0.012
Mof_C 	C 	0.70651	0.03433	0.1006	-0.04
Mof_H 	H 	0.7173	0.0403	0.0819	0.041
Mof_C 	C 	0.70291	0.00937	0.11652	-0.056
Mof_H 	H 	0.7113	0.9986	0.1085	0.048
Mof_C 	C 	0.68676	0.00048	0.14449	0.005
Mof_C 	C 	0.6742	0.01655	0.15654	-0.054
Mof_H 	H 	0.6634	0.0106	0.1753	0.045
Mof_C 	C 	0.6778	0.04152	0.14062	-0.041
Mof_H 	H 	0.6694	0.0523	0.1487	0.041
Mof_C 	C 	0.68288	0.97129	0.15852	0.063
Mof_C 	C 	0.69565	0.9543	0.15027	-0.117
Mof_H 	H 	0.7079	0.9593	0.1326	0.07
Mof_C 	C 	0.69013	0.92978	0.16839	0.04
Mof_H 	H 	0.6987	0.9184	0.1629	0.033
Mof_C 	C 	0.67184	0.92224	0.19477	-0.126
Mof_C 	C 	0.65907	0.93924	0.20302	0.059
Mof_H 	H 	0.6468	0.9342	0.2207	0.025
Mof_C 	C 	0.66459	0.96376	0.1849	-0.124
Mof_H 	H 	0.656	0.9751	0.1904	0.073
Mof_C 	C 	0.775	0.10491	0.71005	0.418
Mof_C 	C 	0.6947	0.14701	0.1086	0.025
Mof_C 	C 	0.6711	0.1382	0.1294	-0.095
Mof_H 	H 	0.6584	0.1181	0.1334	0.058
Mof_C 	C 	0.6664	0.1593	0.1443	0.026
Mof_H 	H 	0.6506	0.1534	0.1582	0.012
Mof_C 	C 	0.6854	0.1893	0.1384	-0.073
Mof_C 	C 	0.709	0.1981	0.1175	0.009
Mof_H 	H 	0.7217	0.2182	0.1135	0.014
Mof_C 	C 	0.7136	0.1769	0.1026	-0.077
Mof_H 	H 	0.7294	0.1829	0.0887	0.053
Mof_C 	C 	0.68324	0.21182	0.15497	0.19
Mof_C 	C 	0.65886	0.20313	0.17465	-0.278
Mof_H 	H 	0.6457	0.1831	0.1781	0.126
Mof_C 	C 	0.65419	0.22443	0.18914	0.258
Mof_H 	H 	0.6379	0.2186	0.2023	-0.041
Mof_C 	C 	0.67388	0.25441	0.18395	-0.4
Mof_C 	C 	0.69825	0.26309	0.16427	0.272
Mof_H 	H 	0.7114	0.2831	0.1608	-0.043
Mof_C 	C 	0.70293	0.24179	0.14979	-0.285
Mof_H 	H 	0.7192	0.2476	0.1366	0.128
Mof_C 	C 	0.6696	0.2758	0.2044	1.007
Mof_C 	C 	0.74846	0.20768	0.74744	0.1
Mof_H 	H 	0.7381	0.1871	0.7456	0.011
Mof_C 	C 	0.73267	0.22256	0.74739	-0.151
Mof_H 	H 	0.7121	0.2117	0.7456	0.081
Mof_C 	C 	0.69951	0.25701	0.745	-0.083
Mof_H 	H 	0.6894	0.237	0.7399	0.057
Mof_C 	C 	0.68409	0.27196	0.7473	-0.001
Mof_H 	H 	0.6635	0.2615	0.7469	0.026
Mof_C 	C 	0.893	0.0993	0.72281	0.123
Mof_H 	H 	0.8846	0.1013	0.7043	0.004
Mof_C 	C 	0.9091	0.0843	0.72279	-0.179
Mof_H 	H 	0.9124	0.0775	0.7038	0.095
Mof_C 	C 	0.96656	0.07606	0.7579	-0.043
Mof_H 	H 	0.9768	0.0963	0.762	0.046
Mof_C 	C 	0.981	0.0604	0.7598	-0.05
Mof_H 	H 	0.0002	0.0692	0.7679	0.045
Mof_O 	O 	0.6947	0.3019	0.2046	-0.526
Mof_O 	O 	0.6471	0.27186	0.2098	-0.563
Mof_C 	C 	0.6943	0.1495	0.1406	-0.008
Mof_H 	H 	0.6973	0.137	0.1539	0.028
Mof_C 	C 	0.6891	0.1713	0.1524	-0.036
Mof_H 	H 	0.6885	0.1722	0.1743	0.039
Mof_C 	C 	0.6923	0.1915	0.1087	-0.018
Mof_H 	H 	0.6981	0.2093	0.0983	0.03
Mof_C 	C 	0.6914	0.168	0.0916	-0.024
Mof_H 	H 	0.6887	0.1665	0.0699	0.034
Mof_Zn	Zn	0.33333	0.66667	0.70985	1.055
Mof_Zn	Zn	0.33333	0.66667	0.79015	1.055
Mof_Zn	Zn	0.66667	0.33333	0.29015	1.055
Mof_Zn	Zn	0.66667	0.33333	0.20985	1.055
Mof_O 	O 	0.33333	0.66667	0.75	-1.561
Mof_O 	O 	0.66667	0.33333	0.25	-1.561
Mof_O 	O 	0.1666	0.33319	0.25	-0.806
Mof_C 	C 	0.20515	0.4103	0.25	0.472
Mof_C 	C 	0.2217	0.4434	0.25	-0.19
Mof_C 	C 	0.25335	0.5067	0.25	0.074
Mof_C 	C 	0.27095	0.5419	0.25	0.022
Mof_C 	C 	0.30155	0.6031	0.25	-0.058
Mof_C 	C 	0.31829	0.63658	0.25	0.154
Mof_C 	C 	0.12695	0.2539	0.25	0.479
Mof_C 	C 	0.1102	0.2204	0.25	-0.198
Mof_C 	C 	0.07975	0.1595	0.25	0.109
Mof_C 	C 	0.0625	0.125	0.25	-0.017
Mof_C 	C 	0.03265	0.0653	0.25	-0.007
Mof_C 	C 	0.01497	0.02993	0.25	0.109
Mof_O 	O 	0.66681	0.83341	0.25	-0.806
Mof_C 	C 	0.5897	0.79485	0.25	0.472
Mof_C 	C 	0.5566	0.7783	0.25	-0.19
Mof_C 	C 	0.4933	0.74665	0.25	0.074
Mof_C 	C 	0.4581	0.72905	0.25	0.022
Mof_C 	C 	0.3969	0.69845	0.25	-0.058
Mof_C 	C 	0.36342	0.68171	0.25	0.154
Mof_C 	C 	0.7461	0.87305	0.25	0.479
Mof_C 	C 	0.7796	0.8898	0.25	-0.198
Mof_C 	C 	0.8405	0.92025	0.25	0.109
Mof_C 	C 	0.875	0.9375	0.25	-0.017
Mof_C 	C 	0.9347	0.96735	0.25	-0.007
Mof_C 	C 	0.97007	0.98504	0.25	0.109
Mof_O 	O 	0.1666	0.83341	0.25	-0.807
Mof_C 	C 	0.20515	0.79485	0.25	0.472
Mof_C 	C 	0.2217	0.7783	0.25	-0.19
Mof_C 	C 	0.25335	0.74665	0.25	0.074
Mof_C 	C 	0.27095	0.72905	0.25	0.022
Mof_C 	C 	0.30155	0.69845	0.25	-0.058
Mof_C 	C 	0.31829	0.68171	0.25	0.154
Mof_C 	C 	0.12695	0.87305	0.25	0.479
Mof_C 	C 	0.1102	0.8898	0.25	-0.198
Mof_C 	C 	0.07975	0.92025	0.25	0.109
Mof_C 	C 	0.0625	0.9375	0.25	-0.017
Mof_C 	C 	0.03265	0.96735	0.25	-0.007
Mof_C 	C 	0.01497	0.98504	0.25	0.109
Mof_O 	O 	0.8334	0.66681	0.75	-0.806
Mof_C 	C 	0.79485	0.5897	0.75	0.472
Mof_C 	C 	0.7783	0.5566	0.75	-0.19
Mof_C 	C 	0.74665	0.4933	0.75	0.074
Mof_C 	C 	0.72905	0.4581	0.75	0.022
Mof_C 	C 	0.69845	0.3969	0.75	-0.058
Mof_C 	C 	0.68171	0.36342	0.75	0.154
Mof_C 	C 	0.87305	0.7461	0.75	0.479
Mof_C 	C 	0.8898	0.7796	0.75	-0.198
Mof_C 	C 	0.92025	0.8405	0.75	0.109
Mof_C 	C 	0.9375	0.875	0.75	-0.017
Mof_C 	C 	0.96735	0.9347	0.75	-0.007
Mof_C 	C 	0.98503	0.97007	0.75	0.109
Mof_O 	O 	0.33319	0.1666	0.75	-0.806
Mof_C 	C 	0.4103	0.20515	0.75	0.472
Mof_C 	C 	0.4434	0.2217	0.75	-0.19
Mof_C 	C 	0.5067	0.25335	0.75	0.074
Mof_C 	C 	0.5419	0.27095	0.75	0.022
Mof_C 	C 	0.6031	0.30155	0.75	-0.058
Mof_C 	C 	0.63658	0.31829	0.75	0.154
Mof_C 	C 	0.2539	0.12695	0.75	0.479
Mof_C 	C 	0.2204	0.1102	0.75	-0.198
Mof_C 	C 	0.1595	0.07975	0.75	0.109
Mof_C 	C 	0.125	0.0625	0.75	-0.017
Mof_C 	C 	0.0653	0.03265	0.75	-0.007
Mof_C 	C 	0.02993	0.01497	0.75	0.109
Mof_O 	O 	0.8334	0.1666	0.75	-0.807
Mof_C 	C 	0.79485	0.20515	0.75	0.472
Mof_C 	C 	0.7783	0.2217	0.75	-0.19
Mof_C 	C 	0.74665	0.25335	0.75	0.074
Mof_C 	C 	0.72905	0.27095	0.75	0.022
Mof_C 	C 	0.69845	0.30155	0.75	-0.058
Mof_C 	C 	0.68171	0.31829	0.75	0.154
Mof_C 	C 	0.87305	0.12695	0.75	0.479
Mof_C 	C 	0.8898	0.1102	0.75	-0.198
Mof_C 	C 	0.92025	0.07975	0.75	0.109
Mof_C 	C 	0.9375	0.0625	0.75	-0.017
Mof_C 	C 	0.96735	0.03265	0.75	-0.007
Mof_C 	C 	0.98503	0.01496	0.75	0.109
Mof_C 	C 	0.34837	0.65163	0.25	-0.223
Mof_H 	H 	0.3587	0.6413	0.25	0.106
Mof_C 	C 	0.34837	0.69674	0.25	-0.223
Mof_H 	H 	0.3587	0.7174	0.25	0.106
Mof_C 	C 	0.30326	0.65163	0.25	-0.223
Mof_H 	H 	0.2826	0.6413	0.25	0.106
Mof_C 	C 	0.65163	0.34837	0.75	-0.223
Mof_H 	H 	0.6413	0.3587	0.75	0.106
Mof_C 	C 	0.65163	0.30326	0.75	-0.223
Mof_H 	H 	0.6413	0.2826	0.75	0.106
Mof_C 	C 	0.69674	0.34837	0.75	-0.223
Mof_H 	H 	0.7174	0.3587	0.75	0.106
Mof_C 	C 	0.03016	0.01508	0.25	-0.181
Mof_H 	H 	0.0508	0.0254	0.25	0.091
Mof_C 	C 	0.98492	0.01508	0.25	-0.181
Mof_H 	H 	0.9746	0.0254	0.25	0.091
Mof_C 	C 	0.98492	0.96984	0.25	-0.181
Mof_H 	H 	0.9746	0.9492	0.25	0.091
Mof_C 	C 	0.96984	0.98492	0.75	-0.181
Mof_H 	H 	0.9492	0.9746	0.75	0.091
Mof_C 	C 	0.01508	0.98492	0.75	-0.181
Mof_H 	H 	0.0254	0.9746	0.75	0.091
Mof_C 	C 	0.01508	0.03016	0.75	-0.181
Mof_H 	H 	0.0254	0.0508	0.75	0.091
_end
