data_functionalizedCrystal
_audit_creation_method	'EQeq! by Chris Wilmer'
_symmetry_space_group_name_H-M	'P1'
_symmetry_Int_Tables_number	1
_symmetry_cell_setting	triclinic
loop_
_symmetry_equiv_pos_as_xyz
  x,y,z
_cell_length_a	12.398
_cell_length_b	33.496
_cell_length_c	12.868
_cell_angle_alpha	90
_cell_angle_beta	96.64
_cell_angle_gamma	90
loop_
_atom_site_label
_atom_site_type_symbol
_atom_site_fract_x
_atom_site_fract_y
_atom_site_fract_z
_atom_site_charge
Mof_Fe	Fe	0.69786	0.06952	0.60443	0.769
Mof_C 	C 	0.7915	0.15021	0.7326	0.019
Mof_H 	H 	0.7317	0.1567	0.6773	0.033
Mof_H 	H 	0.8164	0.1754	0.7679	0.013
Mof_N 	N 	0.6965	0.08985	0.7717	-0.173
Mof_N 	N 	0.7515	0.12308	0.8087	-0.134
Mof_C 	C 	0.758	0.1256	0.9125	0.278
Mof_C 	C 	0.7039	0.0934	0.9468	-0.305
Mof_C 	C 	0.6673	0.07123	0.8563	0.302
Mof_C 	C 	0.6067	0.0328	0.8467	-0.671
Mof_H 	H 	0.5561	0.033	0.7823	0.228
Mof_H 	H 	0.566	0.0295	0.907	0.214
Mof_H 	H 	0.6581	0.0107	0.8444	0.218
Mof_C 	C 	0.8162	0.1603	0.972	-0.612
Mof_H 	H 	0.7933	0.1855	0.9377	0.203
Mof_H 	H 	0.8949	0.1571	0.9725	0.19
Mof_H 	H 	0.798	0.1605	0.0441	0.205
Mof_C 	C 	0.6908	0.0832	0.0565	0.319
Mof_C 	C 	0.6785	0.1111	0.1281	-0.094
Mof_H 	H 	0.6792	0.1384	0.1076	0.057
Mof_C 	C 	0.7643	0.0897	0.1289	-0.275
Mof_H 	H 	0.8279	0.1037	0.1155	0.112
Mof_C 	C 	0.6646	0.1023	0.2317	0.027
Mof_H 	H 	0.6552	0.1231	0.2801	0.019
Mof_C 	C 	0.753	0.0764	0.2296	0.181
Mof_H 	H 	0.8161	0.0774	0.2791	-0.043
Mof_C 	C 	0.6646	0.06257	0.263	-0.27
Mof_C 	C 	0.6865	0.0334	0.1979	0.083
Mof_H 	H 	0.6907	0.0065	0.2217	-0.003
Mof_C 	C 	0.5677	0.0595	0.1791	0.097
Mof_H 	H 	0.4998	0.0502	0.1968	-0.004
Mof_C 	C 	0.7033	0.0423	0.094	-0.173
Mof_H 	H 	0.7228	0.0218	0.0488	0.078
Mof_C 	C 	0.579	0.0705	0.0756	-0.197
Mof_H 	H 	0.52	0.0698	0.0216	0.085
Mof_C 	C 	0.6513	0.05323	0.3735	0.454
Mof_O 	O 	0.695	0.07557	0.4431	-0.407
Mof_O 	O 	0.6024	0.02273	0.3932	-0.403
Mof_N 	N 	0.8581	0.10005	0.6237	-0.178
Mof_N 	N 	0.8808	0.13215	0.6853	-0.134
Mof_C 	C 	0.9869	0.14015	0.6991	0.239
Mof_C 	C 	0.0371	0.112	0.643	-0.252
Mof_C 	C 	0.9518	0.08719	0.5977	0.274
Mof_C 	C 	0.035	0.1749	0.7622	-0.563
Mof_H 	H 	0.1112	0.1782	0.7502	0.18
Mof_H 	H 	0.0309	0.1699	0.8366	0.173
Mof_H 	H 	0.9945	0.1992	0.7408	0.168
Mof_C 	C 	0.9601	0.0521	0.5284	-0.656
Mof_H 	H 	0.9689	0.0278	0.5708	0.211
Mof_H 	H 	0.023	0.0554	0.4895	0.212
Mof_H 	H 	0.8939	0.0501	0.4791	0.214
Mof_C 	C 	0.1523	0.108	0.6314	0.183
Mof_C 	C 	0.2122	0.1396	0.6017	-0.204
Mof_H 	H 	0.1791	0.165	0.5884	0.088
Mof_C 	C 	0.3232	0.1343	0.591	0.096
Mof_H 	H 	0.3648	0.1564	0.5722	0.005
Mof_C 	C 	0.3718	0.0981	0.6069	-0.159
Mof_C 	C 	0.3105	0.0656	0.6361	0.089
Mof_H 	H 	0.343	0.04	0.6464	0.011
Mof_C 	C 	0.2028	0.0711	0.6498	-0.199
Mof_H 	H 	0.1622	0.0493	0.6722	0.09
Mof_C 	C 	0.4885	0.09141	0.5951	0.346
Mof_O 	O 	0.5254	0.05596	0.5947	-0.406
Mof_O 	O 	0.5508	0.12109	0.5892	-0.302
Mof_N 	N 	0.1132	0.79391	0.7358	-0.197
Mof_N 	N 	0.049	0.7851	0.816	-0.137
Mof_C 	C 	0.9745	0.8137	0.8226	0.25
Mof_C 	C 	0.9878	0.8417	0.7492	-0.261
Mof_C 	C 	0.0747	0.828	0.6935	0.288
Mof_C 	C 	0.112	0.8482	0.6049	-0.693
Mof_H 	H 	0.178	0.8633	0.6282	0.229
Mof_H 	H 	0.0555	0.8664	0.574	0.229
Mof_H 	H 	0.1278	0.8284	0.5526	0.206
Mof_C 	C 	0.8917	0.8126	0.9006	-0.584
Mof_H 	H 	0.8534	0.8382	0.8995	0.19
Mof_H 	H 	0.9289	0.8077	0.9709	0.174
Mof_H 	H 	0.8394	0.7911	0.8817	0.186
Mof_C 	C 	0.9208	0.8773	0.7242	0.188
Mof_C 	C 	0.809	0.8734	0.6881	-0.212
Mof_H 	H 	0.7757	0.8478	0.6828	0.099
Mof_C 	C 	0.7475	0.9081	0.6601	0.124
Mof_H 	H 	0.6731	0.9057	0.6335	0.002
Mof_C 	C 	0.7929	0.94467	0.6707	-0.214
Mof_C 	C 	0.8962	0.9488	0.7136	0.128
Mof_H 	H 	0.9257	0.9748	0.7254	-0.012
Mof_C 	C 	0.9608	0.9156	0.7413	-0.228
Mof_H 	H 	0.0335	0.9193	0.7723	0.101
Mof_C 	C 	0.7249	0.98022	0.6335	0.432
Mof_O 	O 	0.6291	0.97401	0.5957	-0.386
Mof_O 	O 	0.765	0.01371	0.6463	-0.41
Mof_Fe	Fe	0.30214	0.56952	0.39557	0.768
Mof_C 	C 	0.2085	0.65021	0.2674	0.019
Mof_H 	H 	0.2683	0.6567	0.3227	0.032
Mof_H 	H 	0.1836	0.6754	0.2321	0.011
Mof_N 	N 	0.3035	0.58985	0.2283	-0.174
Mof_N 	N 	0.2485	0.62308	0.1913	-0.135
Mof_C 	C 	0.242	0.6256	0.0875	0.277
Mof_C 	C 	0.2961	0.5934	0.0532	-0.306
Mof_C 	C 	0.3327	0.57123	0.1437	0.304
Mof_C 	C 	0.3933	0.5328	0.1533	-0.679
Mof_H 	H 	0.4439	0.533	0.2177	0.231
Mof_H 	H 	0.434	0.5295	0.093	0.217
Mof_H 	H 	0.3419	0.5107	0.1556	0.223
Mof_C 	C 	0.1838	0.6603	0.028	-0.612
Mof_H 	H 	0.2067	0.6855	0.0623	0.203
Mof_H 	H 	0.1051	0.6571	0.0275	0.19
Mof_H 	H 	0.202	0.6605	0.9559	0.205
Mof_C 	C 	0.3092	0.5832	0.9435	0.319
Mof_C 	C 	0.3215	0.6111	0.8719	-0.094
Mof_H 	H 	0.3208	0.6384	0.8924	0.057
Mof_C 	C 	0.2357	0.5897	0.8711	-0.275
Mof_H 	H 	0.1721	0.6037	0.8845	0.112
Mof_C 	C 	0.3354	0.6023	0.7683	0.026
Mof_H 	H 	0.3448	0.6231	0.7199	0.019
Mof_C 	C 	0.247	0.5764	0.7704	0.181
Mof_H 	H 	0.1839	0.5774	0.7209	-0.043
Mof_C 	C 	0.3354	0.56257	0.737	-0.269
Mof_C 	C 	0.3135	0.5334	0.8021	0.083
Mof_H 	H 	0.3093	0.5065	0.7783	0
Mof_C 	C 	0.4323	0.5595	0.8209	0.098
Mof_H 	H 	0.5002	0.5502	0.8032	-0.003
Mof_C 	C 	0.2967	0.5423	0.906	-0.173
Mof_H 	H 	0.2772	0.5218	0.9512	0.08
Mof_C 	C 	0.421	0.5705	0.9244	-0.197
Mof_H 	H 	0.48	0.5698	0.9784	0.085
Mof_C 	C 	0.3487	0.55323	0.6265	0.454
Mof_O 	O 	0.305	0.57557	0.5569	-0.407
Mof_O 	O 	0.3976	0.52273	0.6068	-0.401
Mof_N 	N 	0.1419	0.60005	0.3763	-0.179
Mof_N 	N 	0.1192	0.63215	0.3147	-0.134
Mof_C 	C 	0.0131	0.64015	0.3009	0.239
Mof_C 	C 	0.9629	0.612	0.357	-0.252
Mof_C 	C 	0.0482	0.58719	0.4023	0.276
Mof_C 	C 	0.965	0.6749	0.2378	-0.564
Mof_H 	H 	0.8888	0.6782	0.2498	0.18
Mof_H 	H 	0.9691	0.6699	0.1634	0.173
Mof_H 	H 	0.0055	0.6992	0.2592	0.169
Mof_C 	C 	0.0399	0.5521	0.4716	-0.66
Mof_H 	H 	0.0311	0.5278	0.4292	0.214
Mof_H 	H 	0.977	0.5554	0.5105	0.214
Mof_H 	H 	0.1061	0.5501	0.5209	0.216
Mof_C 	C 	0.8477	0.608	0.3686	0.184
Mof_C 	C 	0.7878	0.6396	0.3983	-0.204
Mof_H 	H 	0.8209	0.665	0.4116	0.088
Mof_C 	C 	0.6768	0.6343	0.409	0.096
Mof_H 	H 	0.6352	0.6564	0.4278	0.005
Mof_C 	C 	0.6282	0.5981	0.3931	-0.159
Mof_C 	C 	0.6895	0.5656	0.3639	0.089
Mof_H 	H 	0.657	0.54	0.3536	0.013
Mof_C 	C 	0.7972	0.5711	0.3502	-0.199
Mof_H 	H 	0.8378	0.5493	0.3278	0.092
Mof_C 	C 	0.5115	0.59141	0.4049	0.346
Mof_O 	O 	0.4746	0.55596	0.4053	-0.406
Mof_O 	O 	0.4492	0.62109	0.4108	-0.302
Mof_N 	N 	0.8868	0.29391	0.2642	-0.197
Mof_N 	N 	0.951	0.2851	0.184	-0.137
Mof_C 	C 	0.0255	0.3137	0.1774	0.25
Mof_C 	C 	0.0122	0.3417	0.2508	-0.261
Mof_C 	C 	0.9253	0.328	0.3065	0.289
Mof_C 	C 	0.888	0.3482	0.3951	-0.693
Mof_H 	H 	0.822	0.3633	0.3718	0.229
Mof_H 	H 	0.9445	0.3664	0.426	0.229
Mof_H 	H 	0.8722	0.3284	0.4474	0.207
Mof_C 	C 	0.1083	0.3126	0.0994	-0.583
Mof_H 	H 	0.1466	0.3382	0.1005	0.19
Mof_H 	H 	0.0711	0.3077	0.0291	0.174
Mof_H 	H 	0.1606	0.2911	0.1183	0.185
Mof_C 	C 	0.0792	0.3773	0.2758	0.187
Mof_C 	C 	0.191	0.3734	0.3119	-0.211
Mof_H 	H 	0.2243	0.3478	0.3172	0.099
Mof_C 	C 	0.2525	0.4081	0.3399	0.122
Mof_H 	H 	0.3269	0.4057	0.3665	0.003
Mof_C 	C 	0.2071	0.44467	0.3293	-0.211
Mof_C 	C 	0.1038	0.4488	0.2864	0.126
Mof_H 	H 	0.0743	0.4748	0.2746	-0.014
Mof_C 	C 	0.0392	0.4156	0.2587	-0.228
Mof_H 	H 	0.9665	0.4193	0.2277	0.101
Mof_C 	C 	0.2751	0.48022	0.3665	0.421
Mof_O 	O 	0.3709	0.47401	0.4043	-0.388
Mof_O 	O 	0.235	0.51371	0.3537	-0.401
Mof_Fe	Fe	0.30214	0.93048	0.39557	0.769
Mof_C 	C 	0.2085	0.84979	0.2674	0.019
Mof_H 	H 	0.2683	0.8433	0.3227	0.032
Mof_H 	H 	0.1836	0.8246	0.2321	0.011
Mof_N 	N 	0.3035	0.91015	0.2283	-0.174
Mof_N 	N 	0.2485	0.87692	0.1913	-0.135
Mof_C 	C 	0.242	0.8744	0.0875	0.278
Mof_C 	C 	0.2961	0.9066	0.0532	-0.307
Mof_C 	C 	0.3327	0.92877	0.1437	0.306
Mof_C 	C 	0.3933	0.9672	0.1533	-0.686
Mof_H 	H 	0.4439	0.967	0.2177	0.235
Mof_H 	H 	0.434	0.9705	0.093	0.221
Mof_H 	H 	0.3419	0.9893	0.1556	0.227
Mof_C 	C 	0.1838	0.8397	0.028	-0.612
Mof_H 	H 	0.2067	0.8145	0.0623	0.203
Mof_H 	H 	0.1051	0.8429	0.0275	0.19
Mof_H 	H 	0.202	0.8395	0.9559	0.205
Mof_C 	C 	0.3092	0.9168	0.9435	0.318
Mof_C 	C 	0.3215	0.8889	0.8719	-0.093
Mof_H 	H 	0.3208	0.8616	0.8924	0.057
Mof_C 	C 	0.2357	0.9103	0.8711	-0.274
Mof_H 	H 	0.1721	0.8963	0.8845	0.112
Mof_C 	C 	0.3354	0.8977	0.7683	0.025
Mof_H 	H 	0.3448	0.8769	0.7199	0.019
Mof_C 	C 	0.247	0.9236	0.7704	0.181
Mof_H 	H 	0.1839	0.9226	0.7209	-0.043
Mof_C 	C 	0.3354	0.93743	0.737	-0.267
Mof_C 	C 	0.3135	0.9666	0.8021	0.082
Mof_H 	H 	0.3093	0.9935	0.7783	0.003
Mof_C 	C 	0.4323	0.9405	0.8209	0.097
Mof_H 	H 	0.5002	0.9498	0.8032	-0.001
Mof_C 	C 	0.2967	0.9577	0.906	-0.172
Mof_H 	H 	0.2772	0.9782	0.9512	0.081
Mof_C 	C 	0.421	0.9295	0.9244	-0.196
Mof_H 	H 	0.48	0.9302	0.9784	0.086
Mof_C 	C 	0.3487	0.94677	0.6265	0.452
Mof_O 	O 	0.305	0.92443	0.5569	-0.406
Mof_O 	O 	0.3976	0.97727	0.6068	-0.395
Mof_N 	N 	0.1419	0.89995	0.3763	-0.179
Mof_N 	N 	0.1192	0.86785	0.3147	-0.134
Mof_C 	C 	0.0131	0.85985	0.3009	0.239
Mof_C 	C 	0.9629	0.888	0.357	-0.252
Mof_C 	C 	0.0482	0.91281	0.4023	0.278
Mof_C 	C 	0.965	0.8251	0.2378	-0.564
Mof_H 	H 	0.8888	0.8218	0.2498	0.18
Mof_H 	H 	0.9691	0.8301	0.1634	0.173
Mof_H 	H 	0.0055	0.8008	0.2592	0.168
Mof_C 	C 	0.0399	0.9479	0.4716	-0.666
Mof_H 	H 	0.0311	0.9722	0.4292	0.218
Mof_H 	H 	0.977	0.9446	0.5105	0.217
Mof_H 	H 	0.1061	0.9499	0.5209	0.219
Mof_C 	C 	0.8477	0.892	0.3686	0.184
Mof_C 	C 	0.7878	0.8604	0.3983	-0.204
Mof_H 	H 	0.8209	0.835	0.4116	0.088
Mof_C 	C 	0.6768	0.8657	0.409	0.096
Mof_H 	H 	0.6352	0.8436	0.4278	0.005
Mof_C 	C 	0.6282	0.9019	0.3931	-0.157
Mof_C 	C 	0.6895	0.9344	0.3639	0.088
Mof_H 	H 	0.657	0.96	0.3536	0.016
Mof_C 	C 	0.7972	0.9289	0.3502	-0.198
Mof_H 	H 	0.8378	0.9507	0.3278	0.093
Mof_C 	C 	0.5115	0.90859	0.4049	0.345
Mof_O 	O 	0.4746	0.94404	0.4053	-0.402
Mof_O 	O 	0.4492	0.87891	0.4108	-0.302
Mof_N 	N 	0.8868	0.20609	0.2642	-0.197
Mof_N 	N 	0.951	0.2149	0.184	-0.136
Mof_C 	C 	0.0255	0.1863	0.1774	0.25
Mof_C 	C 	0.0122	0.1583	0.2508	-0.26
Mof_C 	C 	0.9253	0.172	0.3065	0.288
Mof_C 	C 	0.888	0.1518	0.3951	-0.693
Mof_H 	H 	0.822	0.1367	0.3718	0.229
Mof_H 	H 	0.9445	0.1336	0.426	0.229
Mof_H 	H 	0.8722	0.1716	0.4474	0.206
Mof_C 	C 	0.1083	0.1874	0.0994	-0.583
Mof_H 	H 	0.1466	0.1618	0.1005	0.189
Mof_H 	H 	0.0711	0.1923	0.0291	0.174
Mof_H 	H 	0.1606	0.2089	0.1183	0.185
Mof_C 	C 	0.0792	0.1227	0.2758	0.185
Mof_C 	C 	0.191	0.1266	0.3119	-0.209
Mof_H 	H 	0.2243	0.1522	0.3172	0.098
Mof_C 	C 	0.2525	0.0919	0.3399	0.118
Mof_H 	H 	0.3269	0.0943	0.3665	0.004
Mof_C 	C 	0.2071	0.05533	0.3293	-0.207
Mof_C 	C 	0.1038	0.0512	0.2864	0.122
Mof_H 	H 	0.0743	0.0252	0.2746	-0.015
Mof_C 	C 	0.0392	0.0844	0.2587	-0.226
Mof_H 	H 	0.9665	0.0807	0.2277	0.099
Mof_C 	C 	0.2751	0.01978	0.3665	0.408
Mof_O 	O 	0.3709	0.02599	0.4043	-0.386
Mof_O 	O 	0.235	0.98629	0.3537	-0.391
Mof_Fe	Fe	0.69786	0.43048	0.60443	0.768
Mof_C 	C 	0.7915	0.34979	0.7326	0.019
Mof_H 	H 	0.7317	0.3433	0.6773	0.032
Mof_H 	H 	0.8164	0.3246	0.7679	0.011
Mof_N 	N 	0.6965	0.41015	0.7717	-0.174
Mof_N 	N 	0.7515	0.37692	0.8087	-0.135
Mof_C 	C 	0.758	0.3744	0.9125	0.278
Mof_C 	C 	0.7039	0.4066	0.9468	-0.307
Mof_C 	C 	0.6673	0.42877	0.8563	0.304
Mof_C 	C 	0.6067	0.4672	0.8467	-0.679
Mof_H 	H 	0.5561	0.467	0.7823	0.231
Mof_H 	H 	0.566	0.4705	0.907	0.217
Mof_H 	H 	0.6581	0.4893	0.8444	0.223
Mof_C 	C 	0.8162	0.3397	0.972	-0.613
Mof_H 	H 	0.7933	0.3145	0.9377	0.203
Mof_H 	H 	0.8949	0.3429	0.9725	0.19
Mof_H 	H 	0.798	0.3395	0.0441	0.206
Mof_C 	C 	0.6908	0.4168	0.0565	0.319
Mof_C 	C 	0.6785	0.3889	0.1281	-0.094
Mof_H 	H 	0.6792	0.3616	0.1076	0.057
Mof_C 	C 	0.7643	0.4103	0.1289	-0.275
Mof_H 	H 	0.8279	0.3963	0.1155	0.112
Mof_C 	C 	0.6646	0.3977	0.2317	0.026
Mof_H 	H 	0.6552	0.3769	0.2801	0.019
Mof_C 	C 	0.753	0.4236	0.2296	0.182
Mof_H 	H 	0.8161	0.4226	0.2791	-0.043
Mof_C 	C 	0.6646	0.43743	0.263	-0.269
Mof_C 	C 	0.6865	0.4666	0.1979	0.083
Mof_H 	H 	0.6907	0.4935	0.2217	0
Mof_C 	C 	0.5677	0.4405	0.1791	0.098
Mof_H 	H 	0.4998	0.4498	0.1968	-0.003
Mof_C 	C 	0.7033	0.4577	0.094	-0.173
Mof_H 	H 	0.7228	0.4782	0.0488	0.08
Mof_C 	C 	0.579	0.4295	0.0756	-0.197
Mof_H 	H 	0.52	0.4302	0.0216	0.086
Mof_C 	C 	0.6513	0.44677	0.3735	0.454
Mof_O 	O 	0.695	0.42443	0.4431	-0.407
Mof_O 	O 	0.6024	0.47727	0.3932	-0.401
Mof_N 	N 	0.8581	0.39995	0.6237	-0.179
Mof_N 	N 	0.8808	0.36785	0.6853	-0.135
Mof_C 	C 	0.9869	0.35985	0.6991	0.239
Mof_C 	C 	0.0371	0.388	0.643	-0.253
Mof_C 	C 	0.9518	0.41281	0.5977	0.276
Mof_C 	C 	0.035	0.3251	0.7622	-0.564
Mof_H 	H 	0.1112	0.3218	0.7502	0.181
Mof_H 	H 	0.0309	0.3301	0.8366	0.173
Mof_H 	H 	0.9945	0.3008	0.7408	0.169
Mof_C 	C 	0.9601	0.4479	0.5284	-0.66
Mof_H 	H 	0.9689	0.4722	0.5708	0.214
Mof_H 	H 	0.023	0.4446	0.4895	0.214
Mof_H 	H 	0.8939	0.4499	0.4791	0.216
Mof_C 	C 	0.1523	0.392	0.6314	0.184
Mof_C 	C 	0.2122	0.3604	0.6017	-0.204
Mof_H 	H 	0.1791	0.335	0.5884	0.088
Mof_C 	C 	0.3232	0.3657	0.591	0.096
Mof_H 	H 	0.3648	0.3436	0.5722	0.005
Mof_C 	C 	0.3718	0.4019	0.6069	-0.159
Mof_C 	C 	0.3105	0.4344	0.6361	0.089
Mof_H 	H 	0.343	0.46	0.6464	0.013
Mof_C 	C 	0.2028	0.4289	0.6498	-0.199
Mof_H 	H 	0.1622	0.4507	0.6722	0.092
Mof_C 	C 	0.4885	0.40859	0.5951	0.346
Mof_O 	O 	0.5254	0.44404	0.5947	-0.406
Mof_O 	O 	0.5508	0.37891	0.5892	-0.302
Mof_N 	N 	0.1132	0.70609	0.7358	-0.197
Mof_N 	N 	0.049	0.7149	0.816	-0.137
Mof_C 	C 	0.9745	0.6863	0.8226	0.25
Mof_C 	C 	0.9878	0.6583	0.7492	-0.26
Mof_C 	C 	0.0747	0.672	0.6935	0.289
Mof_C 	C 	0.112	0.6518	0.6049	-0.693
Mof_H 	H 	0.178	0.6367	0.6282	0.229
Mof_H 	H 	0.0555	0.6336	0.574	0.229
Mof_H 	H 	0.1278	0.6716	0.5526	0.206
Mof_C 	C 	0.8917	0.6874	0.9006	-0.583
Mof_H 	H 	0.8534	0.6618	0.8995	0.19
Mof_H 	H 	0.9289	0.6923	0.9709	0.174
Mof_H 	H 	0.8394	0.7089	0.8817	0.185
Mof_C 	C 	0.9208	0.6227	0.7242	0.187
Mof_C 	C 	0.809	0.6266	0.6881	-0.211
Mof_H 	H 	0.7757	0.6522	0.6828	0.098
Mof_C 	C 	0.7475	0.5919	0.6601	0.122
Mof_H 	H 	0.6731	0.5943	0.6335	0.003
Mof_C 	C 	0.7929	0.55533	0.6707	-0.211
Mof_C 	C 	0.8962	0.5512	0.7136	0.126
Mof_H 	H 	0.9257	0.5252	0.7254	-0.014
Mof_C 	C 	0.9608	0.5844	0.7413	-0.228
Mof_H 	H 	0.0335	0.5807	0.7723	0.101
Mof_C 	C 	0.7249	0.51978	0.6335	0.421
Mof_O 	O 	0.6291	0.52599	0.5957	-0.388
Mof_O 	O 	0.765	0.48629	0.6463	-0.401
Mof_Fe	Fe	0.5	-2.37787e-33	0.5	0.884
Mof_Fe	Fe	0.5	0.5	0.5	0.896
Mof_Fe	Fe	0.21931	0.75	0.69427	0.567
Mof_Cl	Cl	0.3502	0.75	0.8504	-0.426
Mof_C 	C 	0.0698	0.75	0.8792	0.016
Mof_H 	H 	0.0225	0.75	0.9361	0.008
Mof_H 	H 	0.1463	0.75	0.9113	0.038
Mof_Fe	Fe	0.78069	0.25	0.30573	0.567
Mof_Cl	Cl	0.6498	0.25	0.1496	-0.426
Mof_C 	C 	0.9302	0.25	0.1208	0.016
Mof_H 	H 	0.9775	0.25	0.0639	0.008
Mof_H 	H 	0.8537	0.25	0.0887	0.038
_end
