data_functionalizedCrystal
_audit_creation_method	'EQeq! by Chris Wilmer'
_symmetry_space_group_name_H-M	'P1'
_symmetry_Int_Tables_number	1
_symmetry_cell_setting	triclinic
loop_
_symmetry_equiv_pos_as_xyz
  x,y,z
_cell_length_a	38.757
_cell_length_b	38.757
_cell_length_c	38.757
_cell_angle_alpha	90
_cell_angle_beta	90
_cell_angle_gamma	90
loop_
_atom_site_label
_atom_site_type_symbol
_atom_site_fract_x
_atom_site_fract_y
_atom_site_fract_z
_atom_site_charge
Mof_H 	H 	0.8196	0.1942	0.0858	-0.01
Mof_H 	H 	0.845	0.1741	0.0615	-0.008
Mof_H 	H 	0.8095	0.1576	0.0717	-0.005
Mof_H 	H 	0.90079	0.43638	0.1298	0.059
Mof_H 	H 	0.87309	0.43616	0.09844	0.044
Mof_H 	H 	0.80252	0.18089	0.08648	0.061
Mof_H 	H 	0.84386	0.19353	0.0711	0.063
Mof_H 	H 	0.82622	0.15298	0.05883	0.06
Mof_H 	H 	0.87164	0.43627	0.09878	0.055
Mof_H 	H 	0.8196	0.6942	0.5858	-0.01
Mof_H 	H 	0.845	0.6741	0.5615	-0.006
Mof_H 	H 	0.8095	0.6576	0.5717	-0.004
Mof_H 	H 	0.90079	0.93638	0.6298	0.06
Mof_H 	H 	0.87309	0.93616	0.59844	0.045
Mof_H 	H 	0.80252	0.68089	0.58648	0.062
Mof_H 	H 	0.84386	0.69353	0.5711	0.064
Mof_H 	H 	0.82622	0.65298	0.55883	0.062
Mof_H 	H 	0.87164	0.93627	0.59878	0.056
Mof_H 	H 	0.3196	0.1942	0.5858	-0.009
Mof_H 	H 	0.345	0.1741	0.5615	-0.006
Mof_H 	H 	0.3095	0.1576	0.5717	-0.004
Mof_H 	H 	0.40079	0.43638	0.6298	0.059
Mof_H 	H 	0.37309	0.43616	0.59844	0.044
Mof_H 	H 	0.30252	0.18089	0.58648	0.062
Mof_H 	H 	0.34386	0.19353	0.5711	0.063
Mof_H 	H 	0.32622	0.15298	0.55883	0.061
Mof_H 	H 	0.37164	0.43627	0.59878	0.055
Mof_H 	H 	0.3196	0.6942	0.0858	-0.01
Mof_H 	H 	0.345	0.6741	0.0615	-0.008
Mof_H 	H 	0.3095	0.6576	0.0717	-0.005
Mof_H 	H 	0.40079	0.93638	0.1298	0.059
Mof_H 	H 	0.37309	0.93616	0.09844	0.045
Mof_H 	H 	0.30252	0.68089	0.08648	0.061
Mof_H 	H 	0.34386	0.69353	0.0711	0.063
Mof_H 	H 	0.32622	0.65298	0.05883	0.06
Mof_H 	H 	0.37164	0.93627	0.09878	0.055
Mof_H 	H 	0.1804	0.8058	0.0858	-0.01
Mof_H 	H 	0.155	0.8259	0.0615	-0.008
Mof_H 	H 	0.1905	0.8424	0.0717	-0.005
Mof_H 	H 	0.09921	0.56362	0.1298	0.058
Mof_H 	H 	0.12691	0.56384	0.09844	0.044
Mof_H 	H 	0.19748	0.81911	0.08648	0.061
Mof_H 	H 	0.15614	0.80647	0.0711	0.063
Mof_H 	H 	0.17378	0.84702	0.05883	0.06
Mof_H 	H 	0.12836	0.56373	0.09878	0.054
Mof_H 	H 	0.1804	0.3058	0.5858	-0.009
Mof_H 	H 	0.155	0.3259	0.5615	-0.006
Mof_H 	H 	0.1905	0.3424	0.5717	-0.004
Mof_H 	H 	0.09921	0.06362	0.6298	0.058
Mof_H 	H 	0.12691	0.06384	0.59844	0.044
Mof_H 	H 	0.19748	0.31911	0.58648	0.062
Mof_H 	H 	0.15614	0.30647	0.5711	0.063
Mof_H 	H 	0.17378	0.34702	0.55883	0.061
Mof_H 	H 	0.12836	0.06373	0.59878	0.054
Mof_H 	H 	0.6804	0.8058	0.5858	-0.01
Mof_H 	H 	0.655	0.8259	0.5615	-0.006
Mof_H 	H 	0.6905	0.8424	0.5717	-0.004
Mof_H 	H 	0.59921	0.56362	0.6298	0.059
Mof_H 	H 	0.62691	0.56384	0.59844	0.044
Mof_H 	H 	0.69748	0.81911	0.58648	0.062
Mof_H 	H 	0.65614	0.80647	0.5711	0.064
Mof_H 	H 	0.67378	0.84702	0.55883	0.063
Mof_H 	H 	0.62836	0.56373	0.59878	0.056
Mof_H 	H 	0.6804	0.3058	0.0858	-0.009
Mof_H 	H 	0.655	0.3259	0.0615	-0.007
Mof_H 	H 	0.6905	0.3424	0.0717	-0.004
Mof_H 	H 	0.59921	0.06362	0.1298	0.059
Mof_H 	H 	0.62691	0.06384	0.09844	0.044
Mof_H 	H 	0.69748	0.31911	0.08648	0.062
Mof_H 	H 	0.65614	0.30647	0.0711	0.064
Mof_H 	H 	0.67378	0.34702	0.05883	0.061
Mof_H 	H 	0.62836	0.06373	0.09878	0.055
Mof_H 	H 	0.1804	0.1942	0.9142	-0.008
Mof_H 	H 	0.155	0.1741	0.9385	-0.004
Mof_H 	H 	0.1905	0.1576	0.9283	-0.002
Mof_H 	H 	0.09921	0.43638	0.8702	0.059
Mof_H 	H 	0.12691	0.43616	0.90156	0.046
Mof_H 	H 	0.19748	0.18089	0.91352	0.064
Mof_H 	H 	0.15614	0.19353	0.9289	0.065
Mof_H 	H 	0.17378	0.15298	0.94117	0.063
Mof_H 	H 	0.12836	0.43627	0.90122	0.056
Mof_H 	H 	0.1804	0.6942	0.4142	-0.008
Mof_H 	H 	0.155	0.6741	0.4385	-0.005
Mof_H 	H 	0.1905	0.6576	0.4283	-0.003
Mof_H 	H 	0.09921	0.93638	0.3702	0.06
Mof_H 	H 	0.12691	0.93616	0.40156	0.046
Mof_H 	H 	0.19748	0.68089	0.41352	0.063
Mof_H 	H 	0.15614	0.69353	0.4289	0.064
Mof_H 	H 	0.17378	0.65298	0.44117	0.062
Mof_H 	H 	0.12836	0.93627	0.40122	0.057
Mof_H 	H 	0.6804	0.1942	0.4142	-0.008
Mof_H 	H 	0.655	0.1741	0.4385	-0.005
Mof_H 	H 	0.6905	0.1576	0.4283	-0.003
Mof_H 	H 	0.59921	0.43638	0.3702	0.06
Mof_H 	H 	0.62691	0.43616	0.40156	0.045
Mof_H 	H 	0.69748	0.18089	0.41352	0.063
Mof_H 	H 	0.65614	0.19353	0.4289	0.064
Mof_H 	H 	0.67378	0.15298	0.44117	0.062
Mof_H 	H 	0.62836	0.43627	0.40122	0.056
Mof_H 	H 	0.6804	0.6942	0.9142	-0.008
Mof_H 	H 	0.655	0.6741	0.9385	-0.004
Mof_H 	H 	0.6905	0.6576	0.9283	-0.002
Mof_H 	H 	0.59921	0.93638	0.8702	0.06
Mof_H 	H 	0.62691	0.93616	0.90156	0.047
Mof_H 	H 	0.69748	0.68089	0.91352	0.064
Mof_H 	H 	0.65614	0.69353	0.9289	0.066
Mof_H 	H 	0.67378	0.65298	0.94117	0.064
Mof_H 	H 	0.62836	0.93627	0.90122	0.057
Mof_H 	H 	0.8196	0.8058	0.9142	-0.008
Mof_H 	H 	0.845	0.8259	0.9385	-0.003
Mof_H 	H 	0.8095	0.8424	0.9283	-0.002
Mof_H 	H 	0.90079	0.56362	0.8702	0.06
Mof_H 	H 	0.87309	0.56384	0.90156	0.046
Mof_H 	H 	0.80252	0.81911	0.91352	0.064
Mof_H 	H 	0.84386	0.80647	0.9289	0.066
Mof_H 	H 	0.82622	0.84702	0.94117	0.064
Mof_H 	H 	0.87164	0.56373	0.90122	0.057
Mof_H 	H 	0.8196	0.3058	0.4142	-0.009
Mof_H 	H 	0.845	0.3259	0.4385	-0.005
Mof_H 	H 	0.8095	0.3424	0.4283	-0.003
Mof_H 	H 	0.90079	0.06362	0.3702	0.059
Mof_H 	H 	0.87309	0.06384	0.40156	0.045
Mof_H 	H 	0.80252	0.31911	0.41352	0.063
Mof_H 	H 	0.84386	0.30647	0.4289	0.065
Mof_H 	H 	0.82622	0.34702	0.44117	0.063
Mof_H 	H 	0.87164	0.06373	0.40122	0.055
Mof_H 	H 	0.3196	0.8058	0.4142	-0.009
Mof_H 	H 	0.345	0.8259	0.4385	-0.005
Mof_H 	H 	0.3095	0.8424	0.4283	-0.003
Mof_H 	H 	0.40079	0.56362	0.3702	0.06
Mof_H 	H 	0.37309	0.56384	0.40156	0.045
Mof_H 	H 	0.30252	0.81911	0.41352	0.063
Mof_H 	H 	0.34386	0.80647	0.4289	0.065
Mof_H 	H 	0.32622	0.84702	0.44117	0.063
Mof_H 	H 	0.37164	0.56373	0.40122	0.056
Mof_H 	H 	0.3196	0.3058	0.9142	-0.008
Mof_H 	H 	0.345	0.3259	0.9385	-0.004
Mof_H 	H 	0.3095	0.3424	0.9283	-0.002
Mof_H 	H 	0.40079	0.06362	0.8702	0.059
Mof_H 	H 	0.37309	0.06384	0.90156	0.045
Mof_H 	H 	0.30252	0.31911	0.91352	0.064
Mof_H 	H 	0.34386	0.30647	0.9289	0.066
Mof_H 	H 	0.32622	0.34702	0.94117	0.064
Mof_H 	H 	0.37164	0.06373	0.90122	0.056
Mof_H 	H 	0.0858	0.8196	0.1942	-0.009
Mof_H 	H 	0.0615	0.845	0.1741	-0.007
Mof_H 	H 	0.0717	0.8095	0.1576	-0.004
Mof_H 	H 	0.1298	0.90079	0.43638	0.06
Mof_H 	H 	0.09844	0.87309	0.43616	0.045
Mof_H 	H 	0.08648	0.80252	0.18089	0.062
Mof_H 	H 	0.0711	0.84386	0.19353	0.064
Mof_H 	H 	0.05883	0.82622	0.15298	0.061
Mof_H 	H 	0.09878	0.87164	0.43627	0.056
Mof_H 	H 	0.0858	0.3196	0.6942	-0.009
Mof_H 	H 	0.0615	0.345	0.6741	-0.007
Mof_H 	H 	0.0717	0.3095	0.6576	-0.004
Mof_H 	H 	0.1298	0.40079	0.93638	0.06
Mof_H 	H 	0.09844	0.37309	0.93616	0.046
Mof_H 	H 	0.08648	0.30252	0.68089	0.062
Mof_H 	H 	0.0711	0.34386	0.69353	0.064
Mof_H 	H 	0.05883	0.32622	0.65298	0.061
Mof_H 	H 	0.09878	0.37164	0.93627	0.056
Mof_H 	H 	0.5858	0.8196	0.6942	-0.009
Mof_H 	H 	0.5615	0.845	0.6741	-0.005
Mof_H 	H 	0.5717	0.8095	0.6576	-0.003
Mof_H 	H 	0.6298	0.90079	0.93638	0.061
Mof_H 	H 	0.59844	0.87309	0.93616	0.046
Mof_H 	H 	0.58648	0.80252	0.68089	0.063
Mof_H 	H 	0.5711	0.84386	0.69353	0.065
Mof_H 	H 	0.55883	0.82622	0.65298	0.063
Mof_H 	H 	0.59878	0.87164	0.93627	0.057
Mof_H 	H 	0.5858	0.3196	0.1942	-0.008
Mof_H 	H 	0.5615	0.345	0.1741	-0.005
Mof_H 	H 	0.5717	0.3095	0.1576	-0.003
Mof_H 	H 	0.6298	0.40079	0.43638	0.06
Mof_H 	H 	0.59844	0.37309	0.43616	0.045
Mof_H 	H 	0.58648	0.30252	0.18089	0.063
Mof_H 	H 	0.5711	0.34386	0.19353	0.064
Mof_H 	H 	0.55883	0.32622	0.15298	0.062
Mof_H 	H 	0.59878	0.37164	0.43627	0.056
Mof_H 	H 	0.0858	0.1804	0.8058	-0.009
Mof_H 	H 	0.0615	0.155	0.8259	-0.007
Mof_H 	H 	0.0717	0.1905	0.8424	-0.004
Mof_H 	H 	0.1298	0.09921	0.56362	0.059
Mof_H 	H 	0.09844	0.12691	0.56384	0.045
Mof_H 	H 	0.08648	0.19748	0.81911	0.062
Mof_H 	H 	0.0711	0.15614	0.80647	0.064
Mof_H 	H 	0.05883	0.17378	0.84702	0.061
Mof_H 	H 	0.09878	0.12836	0.56373	0.055
Mof_H 	H 	0.0858	0.6804	0.3058	-0.009
Mof_H 	H 	0.0615	0.655	0.3259	-0.007
Mof_H 	H 	0.0717	0.6905	0.3424	-0.004
Mof_H 	H 	0.1298	0.59921	0.06362	0.059
Mof_H 	H 	0.09844	0.62691	0.06384	0.044
Mof_H 	H 	0.08648	0.69748	0.31911	0.062
Mof_H 	H 	0.0711	0.65614	0.30647	0.064
Mof_H 	H 	0.05883	0.67378	0.34702	0.061
Mof_H 	H 	0.09878	0.62836	0.06373	0.055
Mof_H 	H 	0.5858	0.1804	0.3058	-0.008
Mof_H 	H 	0.5615	0.155	0.3259	-0.005
Mof_H 	H 	0.5717	0.1905	0.3424	-0.003
Mof_H 	H 	0.6298	0.09921	0.06362	0.059
Mof_H 	H 	0.59844	0.12691	0.06384	0.045
Mof_H 	H 	0.58648	0.19748	0.31911	0.063
Mof_H 	H 	0.5711	0.15614	0.30647	0.064
Mof_H 	H 	0.55883	0.17378	0.34702	0.062
Mof_H 	H 	0.59878	0.12836	0.06373	0.055
Mof_H 	H 	0.5858	0.6804	0.8058	-0.009
Mof_H 	H 	0.5615	0.655	0.8259	-0.005
Mof_H 	H 	0.5717	0.6905	0.8424	-0.003
Mof_H 	H 	0.6298	0.59921	0.56362	0.06
Mof_H 	H 	0.59844	0.62691	0.56384	0.045
Mof_H 	H 	0.58648	0.69748	0.81911	0.063
Mof_H 	H 	0.5711	0.65614	0.80647	0.065
Mof_H 	H 	0.55883	0.67378	0.84702	0.063
Mof_H 	H 	0.59878	0.62836	0.56373	0.056
Mof_H 	H 	0.9142	0.1804	0.1942	-0.008
Mof_H 	H 	0.9385	0.155	0.1741	-0.004
Mof_H 	H 	0.9283	0.1905	0.1576	-0.002
Mof_H 	H 	0.8702	0.09921	0.43638	0.059
Mof_H 	H 	0.90156	0.12691	0.43616	0.046
Mof_H 	H 	0.91352	0.19748	0.18089	0.064
Mof_H 	H 	0.9289	0.15614	0.19353	0.065
Mof_H 	H 	0.94117	0.17378	0.15298	0.063
Mof_H 	H 	0.90122	0.12836	0.43627	0.056
Mof_H 	H 	0.9142	0.6804	0.6942	-0.008
Mof_H 	H 	0.9385	0.655	0.6741	-0.004
Mof_H 	H 	0.9283	0.6905	0.6576	-0.002
Mof_H 	H 	0.8702	0.59921	0.93638	0.06
Mof_H 	H 	0.90156	0.62691	0.93616	0.047
Mof_H 	H 	0.91352	0.69748	0.68089	0.064
Mof_H 	H 	0.9289	0.65614	0.69353	0.066
Mof_H 	H 	0.94117	0.67378	0.65298	0.064
Mof_H 	H 	0.90122	0.62836	0.93627	0.057
Mof_H 	H 	0.4142	0.1804	0.6942	-0.008
Mof_H 	H 	0.4385	0.155	0.6741	-0.005
Mof_H 	H 	0.4283	0.1905	0.6576	-0.003
Mof_H 	H 	0.3702	0.09921	0.93638	0.06
Mof_H 	H 	0.40156	0.12691	0.93616	0.046
Mof_H 	H 	0.41352	0.19748	0.68089	0.063
Mof_H 	H 	0.4289	0.15614	0.69353	0.064
Mof_H 	H 	0.44117	0.17378	0.65298	0.062
Mof_H 	H 	0.40122	0.12836	0.93627	0.057
Mof_H 	H 	0.4142	0.6804	0.1942	-0.008
Mof_H 	H 	0.4385	0.655	0.1741	-0.005
Mof_H 	H 	0.4283	0.6905	0.1576	-0.003
Mof_H 	H 	0.3702	0.59921	0.43638	0.06
Mof_H 	H 	0.40156	0.62691	0.43616	0.045
Mof_H 	H 	0.41352	0.69748	0.18089	0.063
Mof_H 	H 	0.4289	0.65614	0.19353	0.064
Mof_H 	H 	0.44117	0.67378	0.15298	0.062
Mof_H 	H 	0.40122	0.62836	0.43627	0.056
Mof_H 	H 	0.9142	0.8196	0.8058	-0.008
Mof_H 	H 	0.9385	0.845	0.8259	-0.003
Mof_H 	H 	0.9283	0.8095	0.8424	-0.002
Mof_H 	H 	0.8702	0.90079	0.56362	0.06
Mof_H 	H 	0.90156	0.87309	0.56384	0.046
Mof_H 	H 	0.91352	0.80252	0.81911	0.064
Mof_H 	H 	0.9289	0.84386	0.80647	0.066
Mof_H 	H 	0.94117	0.82622	0.84702	0.064
Mof_H 	H 	0.90122	0.87164	0.56373	0.057
Mof_H 	H 	0.9142	0.3196	0.3058	-0.008
Mof_H 	H 	0.9385	0.345	0.3259	-0.004
Mof_H 	H 	0.9283	0.3095	0.3424	-0.002
Mof_H 	H 	0.8702	0.40079	0.06362	0.059
Mof_H 	H 	0.90156	0.37309	0.06384	0.045
Mof_H 	H 	0.91352	0.30252	0.31911	0.064
Mof_H 	H 	0.9289	0.34386	0.30647	0.066
Mof_H 	H 	0.94117	0.32622	0.34702	0.064
Mof_H 	H 	0.90122	0.37164	0.06373	0.056
Mof_H 	H 	0.4142	0.8196	0.3058	-0.009
Mof_H 	H 	0.4385	0.845	0.3259	-0.005
Mof_H 	H 	0.4283	0.8095	0.3424	-0.003
Mof_H 	H 	0.3702	0.90079	0.06362	0.059
Mof_H 	H 	0.40156	0.87309	0.06384	0.045
Mof_H 	H 	0.41352	0.80252	0.31911	0.063
Mof_H 	H 	0.4289	0.84386	0.30647	0.065
Mof_H 	H 	0.44117	0.82622	0.34702	0.063
Mof_H 	H 	0.40122	0.87164	0.06373	0.055
Mof_H 	H 	0.4142	0.3196	0.8058	-0.009
Mof_H 	H 	0.4385	0.345	0.8259	-0.005
Mof_H 	H 	0.4283	0.3095	0.8424	-0.003
Mof_H 	H 	0.3702	0.40079	0.56362	0.06
Mof_H 	H 	0.40156	0.37309	0.56384	0.045
Mof_H 	H 	0.41352	0.30252	0.81911	0.063
Mof_H 	H 	0.4289	0.34386	0.80647	0.065
Mof_H 	H 	0.44117	0.32622	0.84702	0.063
Mof_H 	H 	0.40122	0.37164	0.56373	0.056
Mof_H 	H 	0.1942	0.0858	0.8196	-0.009
Mof_H 	H 	0.1741	0.0615	0.845	-0.007
Mof_H 	H 	0.1576	0.0717	0.8095	-0.004
Mof_H 	H 	0.43638	0.1298	0.90079	0.06
Mof_H 	H 	0.43616	0.09844	0.87309	0.045
Mof_H 	H 	0.18089	0.08648	0.80252	0.062
Mof_H 	H 	0.19353	0.0711	0.84386	0.064
Mof_H 	H 	0.15298	0.05883	0.82622	0.061
Mof_H 	H 	0.43627	0.09878	0.87164	0.056
Mof_H 	H 	0.1942	0.5858	0.3196	-0.008
Mof_H 	H 	0.1741	0.5615	0.345	-0.005
Mof_H 	H 	0.1576	0.5717	0.3095	-0.003
Mof_H 	H 	0.43638	0.6298	0.40079	0.06
Mof_H 	H 	0.43616	0.59844	0.37309	0.045
Mof_H 	H 	0.18089	0.58648	0.30252	0.063
Mof_H 	H 	0.19353	0.5711	0.34386	0.064
Mof_H 	H 	0.15298	0.55883	0.32622	0.062
Mof_H 	H 	0.43627	0.59878	0.37164	0.056
Mof_H 	H 	0.6942	0.0858	0.3196	-0.009
Mof_H 	H 	0.6741	0.0615	0.345	-0.007
Mof_H 	H 	0.6576	0.0717	0.3095	-0.004
Mof_H 	H 	0.93638	0.1298	0.40079	0.06
Mof_H 	H 	0.93616	0.09844	0.37309	0.046
Mof_H 	H 	0.68089	0.08648	0.30252	0.062
Mof_H 	H 	0.69353	0.0711	0.34386	0.064
Mof_H 	H 	0.65298	0.05883	0.32622	0.061
Mof_H 	H 	0.93627	0.09878	0.37164	0.056
Mof_H 	H 	0.6942	0.5858	0.8196	-0.009
Mof_H 	H 	0.6741	0.5615	0.845	-0.005
Mof_H 	H 	0.6576	0.5717	0.8095	-0.003
Mof_H 	H 	0.93638	0.6298	0.90079	0.061
Mof_H 	H 	0.93616	0.59844	0.87309	0.046
Mof_H 	H 	0.68089	0.58648	0.80252	0.063
Mof_H 	H 	0.69353	0.5711	0.84386	0.065
Mof_H 	H 	0.65298	0.55883	0.82622	0.063
Mof_H 	H 	0.93627	0.59878	0.87164	0.057
Mof_H 	H 	0.8058	0.0858	0.1804	-0.009
Mof_H 	H 	0.8259	0.0615	0.155	-0.007
Mof_H 	H 	0.8424	0.0717	0.1905	-0.004
Mof_H 	H 	0.56362	0.1298	0.09921	0.059
Mof_H 	H 	0.56384	0.09844	0.12691	0.045
Mof_H 	H 	0.81911	0.08648	0.19748	0.062
Mof_H 	H 	0.80647	0.0711	0.15614	0.064
Mof_H 	H 	0.84702	0.05883	0.17378	0.061
Mof_H 	H 	0.56373	0.09878	0.12836	0.055
Mof_H 	H 	0.8058	0.5858	0.6804	-0.009
Mof_H 	H 	0.8259	0.5615	0.655	-0.005
Mof_H 	H 	0.8424	0.5717	0.6905	-0.003
Mof_H 	H 	0.56362	0.6298	0.59921	0.06
Mof_H 	H 	0.56384	0.59844	0.62691	0.045
Mof_H 	H 	0.81911	0.58648	0.69748	0.063
Mof_H 	H 	0.80647	0.5711	0.65614	0.065
Mof_H 	H 	0.84702	0.55883	0.67378	0.063
Mof_H 	H 	0.56373	0.59878	0.62836	0.056
Mof_H 	H 	0.3058	0.0858	0.6804	-0.009
Mof_H 	H 	0.3259	0.0615	0.655	-0.007
Mof_H 	H 	0.3424	0.0717	0.6905	-0.004
Mof_H 	H 	0.06362	0.1298	0.59921	0.059
Mof_H 	H 	0.06384	0.09844	0.62691	0.044
Mof_H 	H 	0.31911	0.08648	0.69748	0.062
Mof_H 	H 	0.30647	0.0711	0.65614	0.064
Mof_H 	H 	0.34702	0.05883	0.67378	0.061
Mof_H 	H 	0.06373	0.09878	0.62836	0.055
Mof_H 	H 	0.3058	0.5858	0.1804	-0.008
Mof_H 	H 	0.3259	0.5615	0.155	-0.005
Mof_H 	H 	0.3424	0.5717	0.1905	-0.003
Mof_H 	H 	0.06362	0.6298	0.09921	0.059
Mof_H 	H 	0.06384	0.59844	0.12691	0.045
Mof_H 	H 	0.31911	0.58648	0.19748	0.063
Mof_H 	H 	0.30647	0.5711	0.15614	0.064
Mof_H 	H 	0.34702	0.55883	0.17378	0.062
Mof_H 	H 	0.06373	0.59878	0.12836	0.055
Mof_H 	H 	0.1942	0.9142	0.1804	-0.008
Mof_H 	H 	0.1741	0.9385	0.155	-0.004
Mof_H 	H 	0.1576	0.9283	0.1905	-0.002
Mof_H 	H 	0.43638	0.8702	0.09921	0.059
Mof_H 	H 	0.43616	0.90156	0.12691	0.046
Mof_H 	H 	0.18089	0.91352	0.19748	0.064
Mof_H 	H 	0.19353	0.9289	0.15614	0.065
Mof_H 	H 	0.15298	0.94117	0.17378	0.063
Mof_H 	H 	0.43627	0.90122	0.12836	0.056
Mof_H 	H 	0.1942	0.4142	0.6804	-0.008
Mof_H 	H 	0.1741	0.4385	0.655	-0.005
Mof_H 	H 	0.1576	0.4283	0.6905	-0.003
Mof_H 	H 	0.43638	0.3702	0.59921	0.06
Mof_H 	H 	0.43616	0.40156	0.62691	0.045
Mof_H 	H 	0.18089	0.41352	0.69748	0.063
Mof_H 	H 	0.19353	0.4289	0.65614	0.064
Mof_H 	H 	0.15298	0.44117	0.67378	0.062
Mof_H 	H 	0.43627	0.40122	0.62836	0.056
Mof_H 	H 	0.6942	0.9142	0.6804	-0.008
Mof_H 	H 	0.6741	0.9385	0.655	-0.004
Mof_H 	H 	0.6576	0.9283	0.6905	-0.002
Mof_H 	H 	0.93638	0.8702	0.59921	0.06
Mof_H 	H 	0.93616	0.90156	0.62691	0.047
Mof_H 	H 	0.68089	0.91352	0.69748	0.064
Mof_H 	H 	0.69353	0.9289	0.65614	0.066
Mof_H 	H 	0.65298	0.94117	0.67378	0.064
Mof_H 	H 	0.93627	0.90122	0.62836	0.057
Mof_H 	H 	0.6942	0.4142	0.1804	-0.008
Mof_H 	H 	0.6741	0.4385	0.155	-0.005
Mof_H 	H 	0.6576	0.4283	0.1905	-0.003
Mof_H 	H 	0.93638	0.3702	0.09921	0.06
Mof_H 	H 	0.93616	0.40156	0.12691	0.046
Mof_H 	H 	0.68089	0.41352	0.19748	0.063
Mof_H 	H 	0.69353	0.4289	0.15614	0.064
Mof_H 	H 	0.65298	0.44117	0.17378	0.062
Mof_H 	H 	0.93627	0.40122	0.12836	0.057
Mof_H 	H 	0.8058	0.9142	0.8196	-0.008
Mof_H 	H 	0.8259	0.9385	0.845	-0.003
Mof_H 	H 	0.8424	0.9283	0.8095	-0.002
Mof_H 	H 	0.56362	0.8702	0.90079	0.06
Mof_H 	H 	0.56384	0.90156	0.87309	0.046
Mof_H 	H 	0.81911	0.91352	0.80252	0.064
Mof_H 	H 	0.80647	0.9289	0.84386	0.066
Mof_H 	H 	0.84702	0.94117	0.82622	0.064
Mof_H 	H 	0.56373	0.90122	0.87164	0.057
Mof_H 	H 	0.8058	0.4142	0.3196	-0.009
Mof_H 	H 	0.8259	0.4385	0.345	-0.005
Mof_H 	H 	0.8424	0.4283	0.3095	-0.003
Mof_H 	H 	0.56362	0.3702	0.40079	0.06
Mof_H 	H 	0.56384	0.40156	0.37309	0.045
Mof_H 	H 	0.81911	0.41352	0.30252	0.063
Mof_H 	H 	0.80647	0.4289	0.34386	0.065
Mof_H 	H 	0.84702	0.44117	0.32622	0.063
Mof_H 	H 	0.56373	0.40122	0.37164	0.056
Mof_H 	H 	0.3058	0.9142	0.3196	-0.008
Mof_H 	H 	0.3259	0.9385	0.345	-0.004
Mof_H 	H 	0.3424	0.9283	0.3095	-0.002
Mof_H 	H 	0.06362	0.8702	0.40079	0.059
Mof_H 	H 	0.06384	0.90156	0.37309	0.045
Mof_H 	H 	0.31911	0.91352	0.30252	0.064
Mof_H 	H 	0.30647	0.9289	0.34386	0.066
Mof_H 	H 	0.34702	0.94117	0.32622	0.064
Mof_H 	H 	0.06373	0.90122	0.37164	0.056
Mof_H 	H 	0.3058	0.4142	0.8196	-0.009
Mof_H 	H 	0.3259	0.4385	0.845	-0.005
Mof_H 	H 	0.3424	0.4283	0.8095	-0.003
Mof_H 	H 	0.06362	0.3702	0.90079	0.059
Mof_H 	H 	0.06384	0.40156	0.87309	0.045
Mof_H 	H 	0.31911	0.41352	0.80252	0.063
Mof_H 	H 	0.30647	0.4289	0.84386	0.065
Mof_H 	H 	0.34702	0.44117	0.82622	0.063
Mof_H 	H 	0.06373	0.40122	0.87164	0.055
Mof_H 	H 	0.1942	0.8196	0.9142	-0.008
Mof_H 	H 	0.1741	0.845	0.9385	-0.004
Mof_H 	H 	0.1576	0.8095	0.9283	-0.002
Mof_H 	H 	0.43638	0.90079	0.8702	0.06
Mof_H 	H 	0.43616	0.87309	0.90156	0.046
Mof_H 	H 	0.18089	0.80252	0.91352	0.064
Mof_H 	H 	0.19353	0.84386	0.9289	0.066
Mof_H 	H 	0.15298	0.82622	0.94117	0.064
Mof_H 	H 	0.43627	0.87164	0.90122	0.057
Mof_H 	H 	0.1942	0.3196	0.4142	-0.008
Mof_H 	H 	0.1741	0.345	0.4385	-0.005
Mof_H 	H 	0.1576	0.3095	0.4283	-0.003
Mof_H 	H 	0.43638	0.40079	0.3702	0.06
Mof_H 	H 	0.43616	0.37309	0.40156	0.045
Mof_H 	H 	0.18089	0.30252	0.41352	0.063
Mof_H 	H 	0.19353	0.34386	0.4289	0.064
Mof_H 	H 	0.15298	0.32622	0.44117	0.062
Mof_H 	H 	0.43627	0.37164	0.40122	0.056
Mof_H 	H 	0.6942	0.8196	0.4142	-0.009
Mof_H 	H 	0.6741	0.845	0.4385	-0.005
Mof_H 	H 	0.6576	0.8095	0.4283	-0.003
Mof_H 	H 	0.93638	0.90079	0.3702	0.061
Mof_H 	H 	0.93616	0.87309	0.40156	0.046
Mof_H 	H 	0.68089	0.80252	0.41352	0.063
Mof_H 	H 	0.69353	0.84386	0.4289	0.065
Mof_H 	H 	0.65298	0.82622	0.44117	0.063
Mof_H 	H 	0.93627	0.87164	0.40122	0.057
Mof_H 	H 	0.6942	0.3196	0.9142	-0.008
Mof_H 	H 	0.6741	0.345	0.9385	-0.004
Mof_H 	H 	0.6576	0.3095	0.9283	-0.002
Mof_H 	H 	0.93638	0.40079	0.8702	0.06
Mof_H 	H 	0.93616	0.37309	0.90156	0.047
Mof_H 	H 	0.68089	0.30252	0.91352	0.064
Mof_H 	H 	0.69353	0.34386	0.9289	0.066
Mof_H 	H 	0.65298	0.32622	0.94117	0.064
Mof_H 	H 	0.93627	0.37164	0.90122	0.057
Mof_H 	H 	0.8058	0.1804	0.9142	-0.008
Mof_H 	H 	0.8259	0.155	0.9385	-0.004
Mof_H 	H 	0.8424	0.1905	0.9283	-0.002
Mof_H 	H 	0.56362	0.09921	0.8702	0.059
Mof_H 	H 	0.56384	0.12691	0.90156	0.046
Mof_H 	H 	0.81911	0.19748	0.91352	0.064
Mof_H 	H 	0.80647	0.15614	0.9289	0.066
Mof_H 	H 	0.84702	0.17378	0.94117	0.064
Mof_H 	H 	0.56373	0.12836	0.90122	0.056
Mof_H 	H 	0.8058	0.6804	0.4142	-0.009
Mof_H 	H 	0.8259	0.655	0.4385	-0.005
Mof_H 	H 	0.8424	0.6905	0.4283	-0.003
Mof_H 	H 	0.56362	0.59921	0.3702	0.06
Mof_H 	H 	0.56384	0.62691	0.40156	0.045
Mof_H 	H 	0.81911	0.69748	0.41352	0.063
Mof_H 	H 	0.80647	0.65614	0.4289	0.065
Mof_H 	H 	0.84702	0.67378	0.44117	0.063
Mof_H 	H 	0.56373	0.62836	0.40122	0.056
Mof_H 	H 	0.3058	0.1804	0.4142	-0.008
Mof_H 	H 	0.3259	0.155	0.4385	-0.005
Mof_H 	H 	0.3424	0.1905	0.4283	-0.003
Mof_H 	H 	0.06362	0.09921	0.3702	0.059
Mof_H 	H 	0.06384	0.12691	0.40156	0.045
Mof_H 	H 	0.31911	0.19748	0.41352	0.063
Mof_H 	H 	0.30647	0.15614	0.4289	0.064
Mof_H 	H 	0.34702	0.17378	0.44117	0.062
Mof_H 	H 	0.06373	0.12836	0.40122	0.055
Mof_H 	H 	0.3058	0.6804	0.9142	-0.008
Mof_H 	H 	0.3259	0.655	0.9385	-0.004
Mof_H 	H 	0.3424	0.6905	0.9283	-0.002
Mof_H 	H 	0.06362	0.59921	0.8702	0.059
Mof_H 	H 	0.06384	0.62691	0.90156	0.045
Mof_H 	H 	0.31911	0.69748	0.91352	0.064
Mof_H 	H 	0.30647	0.65614	0.9289	0.066
Mof_H 	H 	0.34702	0.67378	0.94117	0.064
Mof_H 	H 	0.06373	0.62836	0.90122	0.056
Mof_H 	H 	0.1942	0.1804	0.0858	-0.009
Mof_H 	H 	0.1741	0.155	0.0615	-0.007
Mof_H 	H 	0.1576	0.1905	0.0717	-0.004
Mof_H 	H 	0.43638	0.09921	0.1298	0.059
Mof_H 	H 	0.43616	0.12691	0.09844	0.045
Mof_H 	H 	0.18089	0.19748	0.08648	0.061
Mof_H 	H 	0.19353	0.15614	0.0711	0.063
Mof_H 	H 	0.15298	0.17378	0.05883	0.061
Mof_H 	H 	0.43627	0.12836	0.09878	0.055
Mof_H 	H 	0.1942	0.6804	0.5858	-0.008
Mof_H 	H 	0.1741	0.655	0.5615	-0.005
Mof_H 	H 	0.1576	0.6905	0.5717	-0.003
Mof_H 	H 	0.43638	0.59921	0.6298	0.06
Mof_H 	H 	0.43616	0.62691	0.59844	0.045
Mof_H 	H 	0.18089	0.69748	0.58648	0.063
Mof_H 	H 	0.19353	0.65614	0.5711	0.064
Mof_H 	H 	0.15298	0.67378	0.55883	0.062
Mof_H 	H 	0.43627	0.62836	0.59878	0.056
Mof_H 	H 	0.6942	0.1804	0.5858	-0.008
Mof_H 	H 	0.6741	0.155	0.5615	-0.005
Mof_H 	H 	0.6576	0.1905	0.5717	-0.003
Mof_H 	H 	0.93638	0.09921	0.6298	0.06
Mof_H 	H 	0.93616	0.12691	0.59844	0.046
Mof_H 	H 	0.68089	0.19748	0.58648	0.063
Mof_H 	H 	0.69353	0.15614	0.5711	0.064
Mof_H 	H 	0.65298	0.17378	0.55883	0.062
Mof_H 	H 	0.93627	0.12836	0.59878	0.057
Mof_H 	H 	0.6942	0.6804	0.0858	-0.009
Mof_H 	H 	0.6741	0.655	0.0615	-0.007
Mof_H 	H 	0.6576	0.6905	0.0717	-0.004
Mof_H 	H 	0.93638	0.59921	0.1298	0.06
Mof_H 	H 	0.93616	0.62691	0.09844	0.046
Mof_H 	H 	0.68089	0.69748	0.08648	0.061
Mof_H 	H 	0.69353	0.65614	0.0711	0.063
Mof_H 	H 	0.65298	0.67378	0.05883	0.061
Mof_H 	H 	0.93627	0.62836	0.09878	0.056
Mof_H 	H 	0.8058	0.8196	0.0858	-0.009
Mof_H 	H 	0.8259	0.845	0.0615	-0.006
Mof_H 	H 	0.8424	0.8095	0.0717	-0.004
Mof_H 	H 	0.56362	0.90079	0.1298	0.06
Mof_H 	H 	0.56384	0.87309	0.09844	0.045
Mof_H 	H 	0.81911	0.80252	0.08648	0.062
Mof_H 	H 	0.80647	0.84386	0.0711	0.064
Mof_H 	H 	0.84702	0.82622	0.05883	0.061
Mof_H 	H 	0.56373	0.87164	0.09878	0.056
Mof_H 	H 	0.8058	0.3196	0.5858	-0.009
Mof_H 	H 	0.8259	0.345	0.5615	-0.005
Mof_H 	H 	0.8424	0.3095	0.5717	-0.003
Mof_H 	H 	0.56362	0.40079	0.6298	0.06
Mof_H 	H 	0.56384	0.37309	0.59844	0.045
Mof_H 	H 	0.81911	0.30252	0.58648	0.063
Mof_H 	H 	0.80647	0.34386	0.5711	0.065
Mof_H 	H 	0.84702	0.32622	0.55883	0.063
Mof_H 	H 	0.56373	0.37164	0.59878	0.056
Mof_H 	H 	0.3058	0.8196	0.5858	-0.009
Mof_H 	H 	0.3259	0.845	0.5615	-0.005
Mof_H 	H 	0.3424	0.8095	0.5717	-0.003
Mof_H 	H 	0.06362	0.90079	0.6298	0.059
Mof_H 	H 	0.06384	0.87309	0.59844	0.045
Mof_H 	H 	0.31911	0.80252	0.58648	0.063
Mof_H 	H 	0.30647	0.84386	0.5711	0.065
Mof_H 	H 	0.34702	0.82622	0.55883	0.063
Mof_H 	H 	0.06373	0.87164	0.59878	0.055
Mof_H 	H 	0.3058	0.3196	0.0858	-0.009
Mof_H 	H 	0.3259	0.345	0.0615	-0.007
Mof_H 	H 	0.3424	0.3095	0.0717	-0.004
Mof_H 	H 	0.06362	0.40079	0.1298	0.059
Mof_H 	H 	0.06384	0.37309	0.09844	0.044
Mof_H 	H 	0.31911	0.30252	0.08648	0.062
Mof_H 	H 	0.30647	0.34386	0.0711	0.064
Mof_H 	H 	0.34702	0.32622	0.05883	0.061
Mof_H 	H 	0.06373	0.37164	0.09878	0.055
Mof_H 	H 	0.8196	0.0858	0.8058	-0.009
Mof_H 	H 	0.845	0.0615	0.8259	-0.006
Mof_H 	H 	0.8095	0.0717	0.8424	-0.004
Mof_H 	H 	0.90079	0.1298	0.56362	0.06
Mof_H 	H 	0.87309	0.09844	0.56384	0.045
Mof_H 	H 	0.80252	0.08648	0.81911	0.062
Mof_H 	H 	0.84386	0.0711	0.80647	0.064
Mof_H 	H 	0.82622	0.05883	0.84702	0.061
Mof_H 	H 	0.87164	0.09878	0.56373	0.056
Mof_H 	H 	0.8196	0.5858	0.3058	-0.009
Mof_H 	H 	0.845	0.5615	0.3259	-0.005
Mof_H 	H 	0.8095	0.5717	0.3424	-0.003
Mof_H 	H 	0.90079	0.6298	0.06362	0.059
Mof_H 	H 	0.87309	0.59844	0.06384	0.045
Mof_H 	H 	0.80252	0.58648	0.31911	0.063
Mof_H 	H 	0.84386	0.5711	0.30647	0.065
Mof_H 	H 	0.82622	0.55883	0.34702	0.063
Mof_H 	H 	0.87164	0.59878	0.06373	0.055
Mof_H 	H 	0.3196	0.0858	0.3058	-0.009
Mof_H 	H 	0.345	0.0615	0.3259	-0.007
Mof_H 	H 	0.3095	0.0717	0.3424	-0.004
Mof_H 	H 	0.40079	0.1298	0.06362	0.059
Mof_H 	H 	0.37309	0.09844	0.06384	0.044
Mof_H 	H 	0.30252	0.08648	0.31911	0.062
Mof_H 	H 	0.34386	0.0711	0.30647	0.064
Mof_H 	H 	0.32622	0.05883	0.34702	0.061
Mof_H 	H 	0.37164	0.09878	0.06373	0.055
Mof_H 	H 	0.3196	0.5858	0.8058	-0.009
Mof_H 	H 	0.345	0.5615	0.8259	-0.005
Mof_H 	H 	0.3095	0.5717	0.8424	-0.003
Mof_H 	H 	0.40079	0.6298	0.56362	0.06
Mof_H 	H 	0.37309	0.59844	0.56384	0.045
Mof_H 	H 	0.30252	0.58648	0.81911	0.063
Mof_H 	H 	0.34386	0.5711	0.80647	0.065
Mof_H 	H 	0.32622	0.55883	0.84702	0.063
Mof_H 	H 	0.37164	0.59878	0.56373	0.056
Mof_H 	H 	0.1804	0.0858	0.1942	-0.009
Mof_H 	H 	0.155	0.0615	0.1741	-0.007
Mof_H 	H 	0.1905	0.0717	0.1576	-0.004
Mof_H 	H 	0.09921	0.1298	0.43638	0.059
Mof_H 	H 	0.12691	0.09844	0.43616	0.045
Mof_H 	H 	0.19748	0.08648	0.18089	0.061
Mof_H 	H 	0.15614	0.0711	0.19353	0.063
Mof_H 	H 	0.17378	0.05883	0.15298	0.061
Mof_H 	H 	0.12836	0.09878	0.43627	0.055
Mof_H 	H 	0.1804	0.5858	0.6942	-0.008
Mof_H 	H 	0.155	0.5615	0.6741	-0.005
Mof_H 	H 	0.1905	0.5717	0.6576	-0.003
Mof_H 	H 	0.09921	0.6298	0.93638	0.06
Mof_H 	H 	0.12691	0.59844	0.93616	0.046
Mof_H 	H 	0.19748	0.58648	0.68089	0.063
Mof_H 	H 	0.15614	0.5711	0.69353	0.064
Mof_H 	H 	0.17378	0.55883	0.65298	0.062
Mof_H 	H 	0.12836	0.59878	0.93627	0.057
Mof_H 	H 	0.6804	0.0858	0.6942	-0.009
Mof_H 	H 	0.655	0.0615	0.6741	-0.007
Mof_H 	H 	0.6905	0.0717	0.6576	-0.004
Mof_H 	H 	0.59921	0.1298	0.93638	0.06
Mof_H 	H 	0.62691	0.09844	0.93616	0.046
Mof_H 	H 	0.69748	0.08648	0.68089	0.061
Mof_H 	H 	0.65614	0.0711	0.69353	0.063
Mof_H 	H 	0.67378	0.05883	0.65298	0.061
Mof_H 	H 	0.62836	0.09878	0.93627	0.056
Mof_H 	H 	0.6804	0.5858	0.1942	-0.008
Mof_H 	H 	0.655	0.5615	0.1741	-0.005
Mof_H 	H 	0.6905	0.5717	0.1576	-0.003
Mof_H 	H 	0.59921	0.6298	0.43638	0.06
Mof_H 	H 	0.62691	0.59844	0.43616	0.045
Mof_H 	H 	0.69748	0.58648	0.18089	0.063
Mof_H 	H 	0.65614	0.5711	0.19353	0.064
Mof_H 	H 	0.67378	0.55883	0.15298	0.062
Mof_H 	H 	0.62836	0.59878	0.43627	0.056
Mof_H 	H 	0.1804	0.9142	0.8058	-0.008
Mof_H 	H 	0.155	0.9385	0.8259	-0.004
Mof_H 	H 	0.1905	0.9283	0.8424	-0.002
Mof_H 	H 	0.09921	0.8702	0.56362	0.059
Mof_H 	H 	0.12691	0.90156	0.56384	0.046
Mof_H 	H 	0.19748	0.91352	0.81911	0.064
Mof_H 	H 	0.15614	0.9289	0.80647	0.066
Mof_H 	H 	0.17378	0.94117	0.84702	0.064
Mof_H 	H 	0.12836	0.90122	0.56373	0.056
Mof_H 	H 	0.1804	0.4142	0.3058	-0.008
Mof_H 	H 	0.155	0.4385	0.3259	-0.005
Mof_H 	H 	0.1905	0.4283	0.3424	-0.003
Mof_H 	H 	0.09921	0.3702	0.06362	0.059
Mof_H 	H 	0.12691	0.40156	0.06384	0.045
Mof_H 	H 	0.19748	0.41352	0.31911	0.063
Mof_H 	H 	0.15614	0.4289	0.30647	0.064
Mof_H 	H 	0.17378	0.44117	0.34702	0.062
Mof_H 	H 	0.12836	0.40122	0.06373	0.055
Mof_H 	H 	0.6804	0.9142	0.3058	-0.008
Mof_H 	H 	0.655	0.9385	0.3259	-0.004
Mof_H 	H 	0.6905	0.9283	0.3424	-0.002
Mof_H 	H 	0.59921	0.8702	0.06362	0.059
Mof_H 	H 	0.62691	0.90156	0.06384	0.045
Mof_H 	H 	0.69748	0.91352	0.31911	0.064
Mof_H 	H 	0.65614	0.9289	0.30647	0.066
Mof_H 	H 	0.67378	0.94117	0.34702	0.064
Mof_H 	H 	0.62836	0.90122	0.06373	0.056
Mof_H 	H 	0.6804	0.4142	0.8058	-0.009
Mof_H 	H 	0.655	0.4385	0.8259	-0.005
Mof_H 	H 	0.6905	0.4283	0.8424	-0.003
Mof_H 	H 	0.59921	0.3702	0.56362	0.06
Mof_H 	H 	0.62691	0.40156	0.56384	0.045
Mof_H 	H 	0.69748	0.41352	0.81911	0.063
Mof_H 	H 	0.65614	0.4289	0.80647	0.065
Mof_H 	H 	0.67378	0.44117	0.84702	0.063
Mof_H 	H 	0.62836	0.40122	0.56373	0.056
Mof_H 	H 	0.8196	0.9142	0.1942	-0.008
Mof_H 	H 	0.845	0.9385	0.1741	-0.004
Mof_H 	H 	0.8095	0.9283	0.1576	-0.002
Mof_H 	H 	0.90079	0.8702	0.43638	0.06
Mof_H 	H 	0.87309	0.90156	0.43616	0.046
Mof_H 	H 	0.80252	0.91352	0.18089	0.064
Mof_H 	H 	0.84386	0.9289	0.19353	0.066
Mof_H 	H 	0.82622	0.94117	0.15298	0.064
Mof_H 	H 	0.87164	0.90122	0.43627	0.057
Mof_H 	H 	0.8196	0.4142	0.6942	-0.009
Mof_H 	H 	0.845	0.4385	0.6741	-0.005
Mof_H 	H 	0.8095	0.4283	0.6576	-0.003
Mof_H 	H 	0.90079	0.3702	0.93638	0.061
Mof_H 	H 	0.87309	0.40156	0.93616	0.046
Mof_H 	H 	0.80252	0.41352	0.68089	0.063
Mof_H 	H 	0.84386	0.4289	0.69353	0.065
Mof_H 	H 	0.82622	0.44117	0.65298	0.063
Mof_H 	H 	0.87164	0.40122	0.93627	0.057
Mof_H 	H 	0.3196	0.9142	0.6942	-0.008
Mof_H 	H 	0.345	0.9385	0.6741	-0.004
Mof_H 	H 	0.3095	0.9283	0.6576	-0.002
Mof_H 	H 	0.40079	0.8702	0.93638	0.06
Mof_H 	H 	0.37309	0.90156	0.93616	0.047
Mof_H 	H 	0.30252	0.91352	0.68089	0.064
Mof_H 	H 	0.34386	0.9289	0.69353	0.066
Mof_H 	H 	0.32622	0.94117	0.65298	0.064
Mof_H 	H 	0.37164	0.90122	0.93627	0.057
Mof_H 	H 	0.3196	0.4142	0.1942	-0.008
Mof_H 	H 	0.345	0.4385	0.1741	-0.005
Mof_H 	H 	0.3095	0.4283	0.1576	-0.003
Mof_H 	H 	0.40079	0.3702	0.43638	0.06
Mof_H 	H 	0.37309	0.40156	0.43616	0.045
Mof_H 	H 	0.30252	0.41352	0.18089	0.063
Mof_H 	H 	0.34386	0.4289	0.19353	0.064
Mof_H 	H 	0.32622	0.44117	0.15298	0.062
Mof_H 	H 	0.37164	0.40122	0.43627	0.056
Mof_H 	H 	0.0858	0.1942	0.1804	-0.009
Mof_H 	H 	0.0615	0.1741	0.155	-0.007
Mof_H 	H 	0.0717	0.1576	0.1905	-0.004
Mof_H 	H 	0.1298	0.43638	0.09921	0.059
Mof_H 	H 	0.09844	0.43616	0.12691	0.045
Mof_H 	H 	0.08648	0.18089	0.19748	0.061
Mof_H 	H 	0.0711	0.19353	0.15614	0.063
Mof_H 	H 	0.05883	0.15298	0.17378	0.061
Mof_H 	H 	0.09878	0.43627	0.12836	0.055
Mof_H 	H 	0.0858	0.6942	0.6804	-0.009
Mof_H 	H 	0.0615	0.6741	0.655	-0.007
Mof_H 	H 	0.0717	0.6576	0.6905	-0.004
Mof_H 	H 	0.1298	0.93638	0.59921	0.06
Mof_H 	H 	0.09844	0.93616	0.62691	0.046
Mof_H 	H 	0.08648	0.68089	0.69748	0.061
Mof_H 	H 	0.0711	0.69353	0.65614	0.063
Mof_H 	H 	0.05883	0.65298	0.67378	0.061
Mof_H 	H 	0.09878	0.93627	0.62836	0.056
Mof_H 	H 	0.5858	0.1942	0.6804	-0.008
Mof_H 	H 	0.5615	0.1741	0.655	-0.005
Mof_H 	H 	0.5717	0.1576	0.6905	-0.003
Mof_H 	H 	0.6298	0.43638	0.59921	0.06
Mof_H 	H 	0.59844	0.43616	0.62691	0.045
Mof_H 	H 	0.58648	0.18089	0.69748	0.063
Mof_H 	H 	0.5711	0.19353	0.65614	0.064
Mof_H 	H 	0.55883	0.15298	0.67378	0.062
Mof_H 	H 	0.59878	0.43627	0.62836	0.056
Mof_H 	H 	0.5858	0.6942	0.1804	-0.008
Mof_H 	H 	0.5615	0.6741	0.155	-0.005
Mof_H 	H 	0.5717	0.6576	0.1905	-0.003
Mof_H 	H 	0.6298	0.93638	0.09921	0.06
Mof_H 	H 	0.59844	0.93616	0.12691	0.046
Mof_H 	H 	0.58648	0.68089	0.19748	0.063
Mof_H 	H 	0.5711	0.69353	0.15614	0.064
Mof_H 	H 	0.55883	0.65298	0.17378	0.062
Mof_H 	H 	0.59878	0.93627	0.12836	0.057
Mof_H 	H 	0.0858	0.8058	0.8196	-0.009
Mof_H 	H 	0.0615	0.8259	0.845	-0.006
Mof_H 	H 	0.0717	0.8424	0.8095	-0.004
Mof_H 	H 	0.1298	0.56362	0.90079	0.06
Mof_H 	H 	0.09844	0.56384	0.87309	0.045
Mof_H 	H 	0.08648	0.81911	0.80252	0.062
Mof_H 	H 	0.0711	0.80647	0.84386	0.064
Mof_H 	H 	0.05883	0.84702	0.82622	0.061
Mof_H 	H 	0.09878	0.56373	0.87164	0.056
Mof_H 	H 	0.0858	0.3058	0.3196	-0.009
Mof_H 	H 	0.0615	0.3259	0.345	-0.007
Mof_H 	H 	0.0717	0.3424	0.3095	-0.004
Mof_H 	H 	0.1298	0.06362	0.40079	0.059
Mof_H 	H 	0.09844	0.06384	0.37309	0.044
Mof_H 	H 	0.08648	0.31911	0.30252	0.062
Mof_H 	H 	0.0711	0.30647	0.34386	0.064
Mof_H 	H 	0.05883	0.34702	0.32622	0.061
Mof_H 	H 	0.09878	0.06373	0.37164	0.055
Mof_H 	H 	0.5858	0.8058	0.3196	-0.009
Mof_H 	H 	0.5615	0.8259	0.345	-0.005
Mof_H 	H 	0.5717	0.8424	0.3095	-0.003
Mof_H 	H 	0.6298	0.56362	0.40079	0.06
Mof_H 	H 	0.59844	0.56384	0.37309	0.045
Mof_H 	H 	0.58648	0.81911	0.30252	0.063
Mof_H 	H 	0.5711	0.80647	0.34386	0.065
Mof_H 	H 	0.55883	0.84702	0.32622	0.063
Mof_H 	H 	0.59878	0.56373	0.37164	0.056
Mof_H 	H 	0.5858	0.3058	0.8196	-0.009
Mof_H 	H 	0.5615	0.3259	0.845	-0.005
Mof_H 	H 	0.5717	0.3424	0.8095	-0.003
Mof_H 	H 	0.6298	0.06362	0.90079	0.059
Mof_H 	H 	0.59844	0.06384	0.87309	0.045
Mof_H 	H 	0.58648	0.31911	0.80252	0.063
Mof_H 	H 	0.5711	0.30647	0.84386	0.065
Mof_H 	H 	0.55883	0.34702	0.82622	0.063
Mof_H 	H 	0.59878	0.06373	0.87164	0.055
Mof_H 	H 	0.9142	0.1942	0.8196	-0.008
Mof_H 	H 	0.9385	0.1741	0.845	-0.004
Mof_H 	H 	0.9283	0.1576	0.8095	-0.002
Mof_H 	H 	0.8702	0.43638	0.90079	0.06
Mof_H 	H 	0.90156	0.43616	0.87309	0.046
Mof_H 	H 	0.91352	0.18089	0.80252	0.064
Mof_H 	H 	0.9289	0.19353	0.84386	0.066
Mof_H 	H 	0.94117	0.15298	0.82622	0.064
Mof_H 	H 	0.90122	0.43627	0.87164	0.057
Mof_H 	H 	0.9142	0.6942	0.3196	-0.008
Mof_H 	H 	0.9385	0.6741	0.345	-0.004
Mof_H 	H 	0.9283	0.6576	0.3095	-0.002
Mof_H 	H 	0.8702	0.93638	0.40079	0.06
Mof_H 	H 	0.90156	0.93616	0.37309	0.047
Mof_H 	H 	0.91352	0.68089	0.30252	0.064
Mof_H 	H 	0.9289	0.69353	0.34386	0.066
Mof_H 	H 	0.94117	0.65298	0.32622	0.064
Mof_H 	H 	0.90122	0.93627	0.37164	0.057
Mof_H 	H 	0.4142	0.1942	0.3196	-0.008
Mof_H 	H 	0.4385	0.1741	0.345	-0.005
Mof_H 	H 	0.4283	0.1576	0.3095	-0.003
Mof_H 	H 	0.3702	0.43638	0.40079	0.06
Mof_H 	H 	0.40156	0.43616	0.37309	0.045
Mof_H 	H 	0.41352	0.18089	0.30252	0.063
Mof_H 	H 	0.4289	0.19353	0.34386	0.064
Mof_H 	H 	0.44117	0.15298	0.32622	0.062
Mof_H 	H 	0.40122	0.43627	0.37164	0.056
Mof_H 	H 	0.4142	0.6942	0.8196	-0.009
Mof_H 	H 	0.4385	0.6741	0.845	-0.005
Mof_H 	H 	0.4283	0.6576	0.8095	-0.003
Mof_H 	H 	0.3702	0.93638	0.90079	0.061
Mof_H 	H 	0.40156	0.93616	0.87309	0.046
Mof_H 	H 	0.41352	0.68089	0.80252	0.063
Mof_H 	H 	0.4289	0.69353	0.84386	0.065
Mof_H 	H 	0.44117	0.65298	0.82622	0.063
Mof_H 	H 	0.40122	0.93627	0.87164	0.057
Mof_H 	H 	0.9142	0.8058	0.1804	-0.008
Mof_H 	H 	0.9385	0.8259	0.155	-0.004
Mof_H 	H 	0.9283	0.8424	0.1905	-0.002
Mof_H 	H 	0.8702	0.56362	0.09921	0.059
Mof_H 	H 	0.90156	0.56384	0.12691	0.046
Mof_H 	H 	0.91352	0.81911	0.19748	0.064
Mof_H 	H 	0.9289	0.80647	0.15614	0.066
Mof_H 	H 	0.94117	0.84702	0.17378	0.064
Mof_H 	H 	0.90122	0.56373	0.12836	0.056
Mof_H 	H 	0.9142	0.3058	0.6804	-0.008
Mof_H 	H 	0.9385	0.3259	0.655	-0.004
Mof_H 	H 	0.9283	0.3424	0.6905	-0.002
Mof_H 	H 	0.8702	0.06362	0.59921	0.059
Mof_H 	H 	0.90156	0.06384	0.62691	0.045
Mof_H 	H 	0.91352	0.31911	0.69748	0.064
Mof_H 	H 	0.9289	0.30647	0.65614	0.066
Mof_H 	H 	0.94117	0.34702	0.67378	0.064
Mof_H 	H 	0.90122	0.06373	0.62836	0.056
Mof_H 	H 	0.4142	0.8058	0.6804	-0.009
Mof_H 	H 	0.4385	0.8259	0.655	-0.005
Mof_H 	H 	0.4283	0.8424	0.6905	-0.003
Mof_H 	H 	0.3702	0.56362	0.59921	0.06
Mof_H 	H 	0.40156	0.56384	0.62691	0.045
Mof_H 	H 	0.41352	0.81911	0.69748	0.063
Mof_H 	H 	0.4289	0.80647	0.65614	0.065
Mof_H 	H 	0.44117	0.84702	0.67378	0.063
Mof_H 	H 	0.40122	0.56373	0.62836	0.056
Mof_H 	H 	0.4142	0.3058	0.1804	-0.008
Mof_H 	H 	0.4385	0.3259	0.155	-0.005
Mof_H 	H 	0.4283	0.3424	0.1905	-0.003
Mof_H 	H 	0.3702	0.06362	0.09921	0.059
Mof_H 	H 	0.40156	0.06384	0.12691	0.045
Mof_H 	H 	0.41352	0.31911	0.19748	0.063
Mof_H 	H 	0.4289	0.30647	0.15614	0.064
Mof_H 	H 	0.44117	0.34702	0.17378	0.062
Mof_H 	H 	0.40122	0.06373	0.12836	0.055
Mof_H 	H 	0.1804	0.8058	0.9142	-0.008
Mof_H 	H 	0.155	0.8259	0.9385	-0.004
Mof_H 	H 	0.1905	0.8424	0.9283	-0.002
Mof_H 	H 	0.09921	0.56362	0.8702	0.059
Mof_H 	H 	0.12691	0.56384	0.90156	0.046
Mof_H 	H 	0.19748	0.81911	0.91352	0.064
Mof_H 	H 	0.15614	0.80647	0.9289	0.066
Mof_H 	H 	0.17378	0.84702	0.94117	0.064
Mof_H 	H 	0.12836	0.56373	0.90122	0.056
Mof_H 	H 	0.1804	0.3058	0.4142	-0.008
Mof_H 	H 	0.155	0.3259	0.4385	-0.005
Mof_H 	H 	0.1905	0.3424	0.4283	-0.003
Mof_H 	H 	0.09921	0.06362	0.3702	0.059
Mof_H 	H 	0.12691	0.06384	0.40156	0.045
Mof_H 	H 	0.19748	0.31911	0.41352	0.063
Mof_H 	H 	0.15614	0.30647	0.4289	0.064
Mof_H 	H 	0.17378	0.34702	0.44117	0.062
Mof_H 	H 	0.12836	0.06373	0.40122	0.055
Mof_H 	H 	0.6804	0.8058	0.4142	-0.009
Mof_H 	H 	0.655	0.8259	0.4385	-0.005
Mof_H 	H 	0.6905	0.8424	0.4283	-0.003
Mof_H 	H 	0.59921	0.56362	0.3702	0.06
Mof_H 	H 	0.62691	0.56384	0.40156	0.045
Mof_H 	H 	0.69748	0.81911	0.41352	0.063
Mof_H 	H 	0.65614	0.80647	0.4289	0.065
Mof_H 	H 	0.67378	0.84702	0.44117	0.063
Mof_H 	H 	0.62836	0.56373	0.40122	0.056
Mof_H 	H 	0.6804	0.3058	0.9142	-0.008
Mof_H 	H 	0.655	0.3259	0.9385	-0.004
Mof_H 	H 	0.6905	0.3424	0.9283	-0.002
Mof_H 	H 	0.59921	0.06362	0.8702	0.059
Mof_H 	H 	0.62691	0.06384	0.90156	0.045
Mof_H 	H 	0.69748	0.31911	0.91352	0.064
Mof_H 	H 	0.65614	0.30647	0.9289	0.066
Mof_H 	H 	0.67378	0.34702	0.94117	0.064
Mof_H 	H 	0.62836	0.06373	0.90122	0.056
Mof_H 	H 	0.8196	0.1942	0.9142	-0.008
Mof_H 	H 	0.845	0.1741	0.9385	-0.004
Mof_H 	H 	0.8095	0.1576	0.9283	-0.002
Mof_H 	H 	0.90079	0.43638	0.8702	0.06
Mof_H 	H 	0.87309	0.43616	0.90156	0.046
Mof_H 	H 	0.80252	0.18089	0.91352	0.064
Mof_H 	H 	0.84386	0.19353	0.9289	0.066
Mof_H 	H 	0.82622	0.15298	0.94117	0.064
Mof_H 	H 	0.87164	0.43627	0.90122	0.057
Mof_H 	H 	0.8196	0.6942	0.4142	-0.009
Mof_H 	H 	0.845	0.6741	0.4385	-0.005
Mof_H 	H 	0.8095	0.6576	0.4283	-0.003
Mof_H 	H 	0.90079	0.93638	0.3702	0.061
Mof_H 	H 	0.87309	0.93616	0.40156	0.046
Mof_H 	H 	0.80252	0.68089	0.41352	0.063
Mof_H 	H 	0.84386	0.69353	0.4289	0.065
Mof_H 	H 	0.82622	0.65298	0.44117	0.063
Mof_H 	H 	0.87164	0.93627	0.40122	0.057
Mof_H 	H 	0.3196	0.1942	0.4142	-0.008
Mof_H 	H 	0.345	0.1741	0.4385	-0.005
Mof_H 	H 	0.3095	0.1576	0.4283	-0.003
Mof_H 	H 	0.40079	0.43638	0.3702	0.06
Mof_H 	H 	0.37309	0.43616	0.40156	0.045
Mof_H 	H 	0.30252	0.18089	0.41352	0.063
Mof_H 	H 	0.34386	0.19353	0.4289	0.064
Mof_H 	H 	0.32622	0.15298	0.44117	0.062
Mof_H 	H 	0.37164	0.43627	0.40122	0.056
Mof_H 	H 	0.3196	0.6942	0.9142	-0.008
Mof_H 	H 	0.345	0.6741	0.9385	-0.004
Mof_H 	H 	0.3095	0.6576	0.9283	-0.002
Mof_H 	H 	0.40079	0.93638	0.8702	0.06
Mof_H 	H 	0.37309	0.93616	0.90156	0.047
Mof_H 	H 	0.30252	0.68089	0.91352	0.064
Mof_H 	H 	0.34386	0.69353	0.9289	0.066
Mof_H 	H 	0.32622	0.65298	0.94117	0.064
Mof_H 	H 	0.37164	0.93627	0.90122	0.057
Mof_H 	H 	0.8196	0.8058	0.0858	-0.009
Mof_H 	H 	0.845	0.8259	0.0615	-0.006
Mof_H 	H 	0.8095	0.8424	0.0717	-0.004
Mof_H 	H 	0.90079	0.56362	0.1298	0.06
Mof_H 	H 	0.87309	0.56384	0.09844	0.045
Mof_H 	H 	0.80252	0.81911	0.08648	0.062
Mof_H 	H 	0.84386	0.80647	0.0711	0.064
Mof_H 	H 	0.82622	0.84702	0.05883	0.061
Mof_H 	H 	0.87164	0.56373	0.09878	0.056
Mof_H 	H 	0.8196	0.3058	0.5858	-0.009
Mof_H 	H 	0.845	0.3259	0.5615	-0.005
Mof_H 	H 	0.8095	0.3424	0.5717	-0.003
Mof_H 	H 	0.90079	0.06362	0.6298	0.059
Mof_H 	H 	0.87309	0.06384	0.59844	0.045
Mof_H 	H 	0.80252	0.31911	0.58648	0.063
Mof_H 	H 	0.84386	0.30647	0.5711	0.065
Mof_H 	H 	0.82622	0.34702	0.55883	0.063
Mof_H 	H 	0.87164	0.06373	0.59878	0.055
Mof_H 	H 	0.3196	0.8058	0.5858	-0.009
Mof_H 	H 	0.345	0.8259	0.5615	-0.005
Mof_H 	H 	0.3095	0.8424	0.5717	-0.003
Mof_H 	H 	0.40079	0.56362	0.6298	0.06
Mof_H 	H 	0.37309	0.56384	0.59844	0.045
Mof_H 	H 	0.30252	0.81911	0.58648	0.063
Mof_H 	H 	0.34386	0.80647	0.5711	0.065
Mof_H 	H 	0.32622	0.84702	0.55883	0.063
Mof_H 	H 	0.37164	0.56373	0.59878	0.056
Mof_H 	H 	0.3196	0.3058	0.0858	-0.009
Mof_H 	H 	0.345	0.3259	0.0615	-0.007
Mof_H 	H 	0.3095	0.3424	0.0717	-0.004
Mof_H 	H 	0.40079	0.06362	0.1298	0.059
Mof_H 	H 	0.37309	0.06384	0.09844	0.044
Mof_H 	H 	0.30252	0.31911	0.08648	0.062
Mof_H 	H 	0.34386	0.30647	0.0711	0.064
Mof_H 	H 	0.32622	0.34702	0.05883	0.061
Mof_H 	H 	0.37164	0.06373	0.09878	0.055
Mof_H 	H 	0.1804	0.1942	0.0858	-0.009
Mof_H 	H 	0.155	0.1741	0.0615	-0.007
Mof_H 	H 	0.1905	0.1576	0.0717	-0.004
Mof_H 	H 	0.09921	0.43638	0.1298	0.059
Mof_H 	H 	0.12691	0.43616	0.09844	0.045
Mof_H 	H 	0.19748	0.18089	0.08648	0.061
Mof_H 	H 	0.15614	0.19353	0.0711	0.063
Mof_H 	H 	0.17378	0.15298	0.05883	0.061
Mof_H 	H 	0.12836	0.43627	0.09878	0.055
Mof_H 	H 	0.1804	0.6942	0.5858	-0.008
Mof_H 	H 	0.155	0.6741	0.5615	-0.005
Mof_H 	H 	0.1905	0.6576	0.5717	-0.003
Mof_H 	H 	0.09921	0.93638	0.6298	0.06
Mof_H 	H 	0.12691	0.93616	0.59844	0.046
Mof_H 	H 	0.19748	0.68089	0.58648	0.063
Mof_H 	H 	0.15614	0.69353	0.5711	0.064
Mof_H 	H 	0.17378	0.65298	0.55883	0.062
Mof_H 	H 	0.12836	0.93627	0.59878	0.057
Mof_H 	H 	0.6804	0.1942	0.5858	-0.008
Mof_H 	H 	0.655	0.1741	0.5615	-0.005
Mof_H 	H 	0.6905	0.1576	0.5717	-0.003
Mof_H 	H 	0.59921	0.43638	0.6298	0.06
Mof_H 	H 	0.62691	0.43616	0.59844	0.045
Mof_H 	H 	0.69748	0.18089	0.58648	0.063
Mof_H 	H 	0.65614	0.19353	0.5711	0.064
Mof_H 	H 	0.67378	0.15298	0.55883	0.062
Mof_H 	H 	0.62836	0.43627	0.59878	0.056
Mof_H 	H 	0.6804	0.6942	0.0858	-0.009
Mof_H 	H 	0.655	0.6741	0.0615	-0.007
Mof_H 	H 	0.6905	0.6576	0.0717	-0.004
Mof_H 	H 	0.59921	0.93638	0.1298	0.06
Mof_H 	H 	0.62691	0.93616	0.09844	0.046
Mof_H 	H 	0.69748	0.68089	0.08648	0.061
Mof_H 	H 	0.65614	0.69353	0.0711	0.063
Mof_H 	H 	0.67378	0.65298	0.05883	0.061
Mof_H 	H 	0.62836	0.93627	0.09878	0.056
Mof_H 	H 	0.9142	0.1804	0.8058	-0.008
Mof_H 	H 	0.9385	0.155	0.8259	-0.004
Mof_H 	H 	0.9283	0.1905	0.8424	-0.002
Mof_H 	H 	0.8702	0.09921	0.56362	0.059
Mof_H 	H 	0.90156	0.12691	0.56384	0.046
Mof_H 	H 	0.91352	0.19748	0.81911	0.064
Mof_H 	H 	0.9289	0.15614	0.80647	0.066
Mof_H 	H 	0.94117	0.17378	0.84702	0.064
Mof_H 	H 	0.90122	0.12836	0.56373	0.056
Mof_H 	H 	0.9142	0.6804	0.3058	-0.008
Mof_H 	H 	0.9385	0.655	0.3259	-0.004
Mof_H 	H 	0.9283	0.6905	0.3424	-0.002
Mof_H 	H 	0.8702	0.59921	0.06362	0.059
Mof_H 	H 	0.90156	0.62691	0.06384	0.045
Mof_H 	H 	0.91352	0.69748	0.31911	0.064
Mof_H 	H 	0.9289	0.65614	0.30647	0.066
Mof_H 	H 	0.94117	0.67378	0.34702	0.064
Mof_H 	H 	0.90122	0.62836	0.06373	0.056
Mof_H 	H 	0.4142	0.1804	0.3058	-0.008
Mof_H 	H 	0.4385	0.155	0.3259	-0.005
Mof_H 	H 	0.4283	0.1905	0.3424	-0.003
Mof_H 	H 	0.3702	0.09921	0.06362	0.059
Mof_H 	H 	0.40156	0.12691	0.06384	0.045
Mof_H 	H 	0.41352	0.19748	0.31911	0.063
Mof_H 	H 	0.4289	0.15614	0.30647	0.064
Mof_H 	H 	0.44117	0.17378	0.34702	0.062
Mof_H 	H 	0.40122	0.12836	0.06373	0.055
Mof_H 	H 	0.4142	0.6804	0.8058	-0.009
Mof_H 	H 	0.4385	0.655	0.8259	-0.005
Mof_H 	H 	0.4283	0.6905	0.8424	-0.003
Mof_H 	H 	0.3702	0.59921	0.56362	0.06
Mof_H 	H 	0.40156	0.62691	0.56384	0.045
Mof_H 	H 	0.41352	0.69748	0.81911	0.063
Mof_H 	H 	0.4289	0.65614	0.80647	0.065
Mof_H 	H 	0.44117	0.67378	0.84702	0.063
Mof_H 	H 	0.40122	0.62836	0.56373	0.056
Mof_H 	H 	0.9142	0.8196	0.1942	-0.008
Mof_H 	H 	0.9385	0.845	0.1741	-0.004
Mof_H 	H 	0.9283	0.8095	0.1576	-0.002
Mof_H 	H 	0.8702	0.90079	0.43638	0.06
Mof_H 	H 	0.90156	0.87309	0.43616	0.046
Mof_H 	H 	0.91352	0.80252	0.18089	0.064
Mof_H 	H 	0.9289	0.84386	0.19353	0.066
Mof_H 	H 	0.94117	0.82622	0.15298	0.064
Mof_H 	H 	0.90122	0.87164	0.43627	0.057
Mof_H 	H 	0.9142	0.3196	0.6942	-0.008
Mof_H 	H 	0.9385	0.345	0.6741	-0.004
Mof_H 	H 	0.9283	0.3095	0.6576	-0.002
Mof_H 	H 	0.8702	0.40079	0.93638	0.06
Mof_H 	H 	0.90156	0.37309	0.93616	0.047
Mof_H 	H 	0.91352	0.30252	0.68089	0.064
Mof_H 	H 	0.9289	0.34386	0.69353	0.066
Mof_H 	H 	0.94117	0.32622	0.65298	0.064
Mof_H 	H 	0.90122	0.37164	0.93627	0.057
Mof_H 	H 	0.4142	0.8196	0.6942	-0.009
Mof_H 	H 	0.4385	0.845	0.6741	-0.005
Mof_H 	H 	0.4283	0.8095	0.6576	-0.003
Mof_H 	H 	0.3702	0.90079	0.93638	0.061
Mof_H 	H 	0.40156	0.87309	0.93616	0.046
Mof_H 	H 	0.41352	0.80252	0.68089	0.063
Mof_H 	H 	0.4289	0.84386	0.69353	0.065
Mof_H 	H 	0.44117	0.82622	0.65298	0.063
Mof_H 	H 	0.40122	0.87164	0.93627	0.057
Mof_H 	H 	0.4142	0.3196	0.1942	-0.008
Mof_H 	H 	0.4385	0.345	0.1741	-0.005
Mof_H 	H 	0.4283	0.3095	0.1576	-0.003
Mof_H 	H 	0.3702	0.40079	0.43638	0.06
Mof_H 	H 	0.40156	0.37309	0.43616	0.045
Mof_H 	H 	0.41352	0.30252	0.18089	0.063
Mof_H 	H 	0.4289	0.34386	0.19353	0.064
Mof_H 	H 	0.44117	0.32622	0.15298	0.062
Mof_H 	H 	0.40122	0.37164	0.43627	0.056
Mof_H 	H 	0.0858	0.8196	0.8058	-0.009
Mof_H 	H 	0.0615	0.845	0.8259	-0.006
Mof_H 	H 	0.0717	0.8095	0.8424	-0.004
Mof_H 	H 	0.1298	0.90079	0.56362	0.06
Mof_H 	H 	0.09844	0.87309	0.56384	0.045
Mof_H 	H 	0.08648	0.80252	0.81911	0.062
Mof_H 	H 	0.0711	0.84386	0.80647	0.064
Mof_H 	H 	0.05883	0.82622	0.84702	0.061
Mof_H 	H 	0.09878	0.87164	0.56373	0.056
Mof_H 	H 	0.0858	0.3196	0.3058	-0.009
Mof_H 	H 	0.0615	0.345	0.3259	-0.007
Mof_H 	H 	0.0717	0.3095	0.3424	-0.004
Mof_H 	H 	0.1298	0.40079	0.06362	0.059
Mof_H 	H 	0.09844	0.37309	0.06384	0.044
Mof_H 	H 	0.08648	0.30252	0.31911	0.062
Mof_H 	H 	0.0711	0.34386	0.30647	0.064
Mof_H 	H 	0.05883	0.32622	0.34702	0.061
Mof_H 	H 	0.09878	0.37164	0.06373	0.055
Mof_H 	H 	0.5858	0.8196	0.3058	-0.009
Mof_H 	H 	0.5615	0.845	0.3259	-0.005
Mof_H 	H 	0.5717	0.8095	0.3424	-0.003
Mof_H 	H 	0.6298	0.90079	0.06362	0.059
Mof_H 	H 	0.59844	0.87309	0.06384	0.045
Mof_H 	H 	0.58648	0.80252	0.31911	0.063
Mof_H 	H 	0.5711	0.84386	0.30647	0.065
Mof_H 	H 	0.55883	0.82622	0.34702	0.063
Mof_H 	H 	0.59878	0.87164	0.06373	0.055
Mof_H 	H 	0.5858	0.3196	0.8058	-0.009
Mof_H 	H 	0.5615	0.345	0.8259	-0.005
Mof_H 	H 	0.5717	0.3095	0.8424	-0.003
Mof_H 	H 	0.6298	0.40079	0.56362	0.06
Mof_H 	H 	0.59844	0.37309	0.56384	0.045
Mof_H 	H 	0.58648	0.30252	0.81911	0.063
Mof_H 	H 	0.5711	0.34386	0.80647	0.065
Mof_H 	H 	0.55883	0.32622	0.84702	0.063
Mof_H 	H 	0.59878	0.37164	0.56373	0.056
Mof_H 	H 	0.0858	0.1804	0.1942	-0.009
Mof_H 	H 	0.0615	0.155	0.1741	-0.007
Mof_H 	H 	0.0717	0.1905	0.1576	-0.004
Mof_H 	H 	0.1298	0.09921	0.43638	0.059
Mof_H 	H 	0.09844	0.12691	0.43616	0.045
Mof_H 	H 	0.08648	0.19748	0.18089	0.061
Mof_H 	H 	0.0711	0.15614	0.19353	0.063
Mof_H 	H 	0.05883	0.17378	0.15298	0.061
Mof_H 	H 	0.09878	0.12836	0.43627	0.055
Mof_H 	H 	0.0858	0.6804	0.6942	-0.009
Mof_H 	H 	0.0615	0.655	0.6741	-0.007
Mof_H 	H 	0.0717	0.6905	0.6576	-0.004
Mof_H 	H 	0.1298	0.59921	0.93638	0.06
Mof_H 	H 	0.09844	0.62691	0.93616	0.046
Mof_H 	H 	0.08648	0.69748	0.68089	0.061
Mof_H 	H 	0.0711	0.65614	0.69353	0.063
Mof_H 	H 	0.05883	0.67378	0.65298	0.061
Mof_H 	H 	0.09878	0.62836	0.93627	0.056
Mof_H 	H 	0.5858	0.1804	0.6942	-0.008
Mof_H 	H 	0.5615	0.155	0.6741	-0.005
Mof_H 	H 	0.5717	0.1905	0.6576	-0.003
Mof_H 	H 	0.6298	0.09921	0.93638	0.06
Mof_H 	H 	0.59844	0.12691	0.93616	0.046
Mof_H 	H 	0.58648	0.19748	0.68089	0.063
Mof_H 	H 	0.5711	0.15614	0.69353	0.064
Mof_H 	H 	0.55883	0.17378	0.65298	0.062
Mof_H 	H 	0.59878	0.12836	0.93627	0.057
Mof_H 	H 	0.5858	0.6804	0.1942	-0.008
Mof_H 	H 	0.5615	0.655	0.1741	-0.005
Mof_H 	H 	0.5717	0.6905	0.1576	-0.003
Mof_H 	H 	0.6298	0.59921	0.43638	0.06
Mof_H 	H 	0.59844	0.62691	0.43616	0.045
Mof_H 	H 	0.58648	0.69748	0.18089	0.063
Mof_H 	H 	0.5711	0.65614	0.19353	0.064
Mof_H 	H 	0.55883	0.67378	0.15298	0.062
Mof_H 	H 	0.59878	0.62836	0.43627	0.056
Mof_H 	H 	0.8058	0.9142	0.1804	-0.008
Mof_H 	H 	0.8259	0.9385	0.155	-0.004
Mof_H 	H 	0.8424	0.9283	0.1905	-0.002
Mof_H 	H 	0.56362	0.8702	0.09921	0.059
Mof_H 	H 	0.56384	0.90156	0.12691	0.046
Mof_H 	H 	0.81911	0.91352	0.19748	0.064
Mof_H 	H 	0.80647	0.9289	0.15614	0.066
Mof_H 	H 	0.84702	0.94117	0.17378	0.064
Mof_H 	H 	0.56373	0.90122	0.12836	0.056
Mof_H 	H 	0.8058	0.4142	0.6804	-0.009
Mof_H 	H 	0.8259	0.4385	0.655	-0.005
Mof_H 	H 	0.8424	0.4283	0.6905	-0.003
Mof_H 	H 	0.56362	0.3702	0.59921	0.06
Mof_H 	H 	0.56384	0.40156	0.62691	0.045
Mof_H 	H 	0.81911	0.41352	0.69748	0.063
Mof_H 	H 	0.80647	0.4289	0.65614	0.065
Mof_H 	H 	0.84702	0.44117	0.67378	0.063
Mof_H 	H 	0.56373	0.40122	0.62836	0.056
Mof_H 	H 	0.3058	0.9142	0.6804	-0.008
Mof_H 	H 	0.3259	0.9385	0.655	-0.004
Mof_H 	H 	0.3424	0.9283	0.6905	-0.002
Mof_H 	H 	0.06362	0.8702	0.59921	0.059
Mof_H 	H 	0.06384	0.90156	0.62691	0.045
Mof_H 	H 	0.31911	0.91352	0.69748	0.064
Mof_H 	H 	0.30647	0.9289	0.65614	0.066
Mof_H 	H 	0.34702	0.94117	0.67378	0.064
Mof_H 	H 	0.06373	0.90122	0.62836	0.056
Mof_H 	H 	0.3058	0.4142	0.1804	-0.008
Mof_H 	H 	0.3259	0.4385	0.155	-0.005
Mof_H 	H 	0.3424	0.4283	0.1905	-0.003
Mof_H 	H 	0.06362	0.3702	0.09921	0.059
Mof_H 	H 	0.06384	0.40156	0.12691	0.045
Mof_H 	H 	0.31911	0.41352	0.19748	0.063
Mof_H 	H 	0.30647	0.4289	0.15614	0.064
Mof_H 	H 	0.34702	0.44117	0.17378	0.062
Mof_H 	H 	0.06373	0.40122	0.12836	0.055
Mof_H 	H 	0.1942	0.9142	0.8196	-0.008
Mof_H 	H 	0.1741	0.9385	0.845	-0.004
Mof_H 	H 	0.1576	0.9283	0.8095	-0.002
Mof_H 	H 	0.43638	0.8702	0.90079	0.06
Mof_H 	H 	0.43616	0.90156	0.87309	0.046
Mof_H 	H 	0.18089	0.91352	0.80252	0.064
Mof_H 	H 	0.19353	0.9289	0.84386	0.066
Mof_H 	H 	0.15298	0.94117	0.82622	0.064
Mof_H 	H 	0.43627	0.90122	0.87164	0.057
Mof_H 	H 	0.1942	0.4142	0.3196	-0.008
Mof_H 	H 	0.1741	0.4385	0.345	-0.005
Mof_H 	H 	0.1576	0.4283	0.3095	-0.003
Mof_H 	H 	0.43638	0.3702	0.40079	0.06
Mof_H 	H 	0.43616	0.40156	0.37309	0.045
Mof_H 	H 	0.18089	0.41352	0.30252	0.063
Mof_H 	H 	0.19353	0.4289	0.34386	0.064
Mof_H 	H 	0.15298	0.44117	0.32622	0.062
Mof_H 	H 	0.43627	0.40122	0.37164	0.056
Mof_H 	H 	0.6942	0.9142	0.3196	-0.008
Mof_H 	H 	0.6741	0.9385	0.345	-0.004
Mof_H 	H 	0.6576	0.9283	0.3095	-0.002
Mof_H 	H 	0.93638	0.8702	0.40079	0.06
Mof_H 	H 	0.93616	0.90156	0.37309	0.047
Mof_H 	H 	0.68089	0.91352	0.30252	0.064
Mof_H 	H 	0.69353	0.9289	0.34386	0.066
Mof_H 	H 	0.65298	0.94117	0.32622	0.064
Mof_H 	H 	0.93627	0.90122	0.37164	0.057
Mof_H 	H 	0.6942	0.4142	0.8196	-0.009
Mof_H 	H 	0.6741	0.4385	0.845	-0.005
Mof_H 	H 	0.6576	0.4283	0.8095	-0.003
Mof_H 	H 	0.93638	0.3702	0.90079	0.061
Mof_H 	H 	0.93616	0.40156	0.87309	0.046
Mof_H 	H 	0.68089	0.41352	0.80252	0.063
Mof_H 	H 	0.69353	0.4289	0.84386	0.065
Mof_H 	H 	0.65298	0.44117	0.82622	0.063
Mof_H 	H 	0.93627	0.40122	0.87164	0.057
Mof_H 	H 	0.8058	0.0858	0.8196	-0.009
Mof_H 	H 	0.8259	0.0615	0.845	-0.006
Mof_H 	H 	0.8424	0.0717	0.8095	-0.004
Mof_H 	H 	0.56362	0.1298	0.90079	0.06
Mof_H 	H 	0.56384	0.09844	0.87309	0.045
Mof_H 	H 	0.81911	0.08648	0.80252	0.062
Mof_H 	H 	0.80647	0.0711	0.84386	0.064
Mof_H 	H 	0.84702	0.05883	0.82622	0.061
Mof_H 	H 	0.56373	0.09878	0.87164	0.056
Mof_H 	H 	0.8058	0.5858	0.3196	-0.009
Mof_H 	H 	0.8259	0.5615	0.345	-0.005
Mof_H 	H 	0.8424	0.5717	0.3095	-0.003
Mof_H 	H 	0.56362	0.6298	0.40079	0.06
Mof_H 	H 	0.56384	0.59844	0.37309	0.045
Mof_H 	H 	0.81911	0.58648	0.30252	0.063
Mof_H 	H 	0.80647	0.5711	0.34386	0.065
Mof_H 	H 	0.84702	0.55883	0.32622	0.063
Mof_H 	H 	0.56373	0.59878	0.37164	0.056
Mof_H 	H 	0.3058	0.0858	0.3196	-0.009
Mof_H 	H 	0.3259	0.0615	0.345	-0.007
Mof_H 	H 	0.3424	0.0717	0.3095	-0.004
Mof_H 	H 	0.06362	0.1298	0.40079	0.059
Mof_H 	H 	0.06384	0.09844	0.37309	0.044
Mof_H 	H 	0.31911	0.08648	0.30252	0.062
Mof_H 	H 	0.30647	0.0711	0.34386	0.064
Mof_H 	H 	0.34702	0.05883	0.32622	0.061
Mof_H 	H 	0.06373	0.09878	0.37164	0.055
Mof_H 	H 	0.3058	0.5858	0.8196	-0.009
Mof_H 	H 	0.3259	0.5615	0.845	-0.005
Mof_H 	H 	0.3424	0.5717	0.8095	-0.003
Mof_H 	H 	0.06362	0.6298	0.90079	0.059
Mof_H 	H 	0.06384	0.59844	0.87309	0.045
Mof_H 	H 	0.31911	0.58648	0.80252	0.063
Mof_H 	H 	0.30647	0.5711	0.84386	0.065
Mof_H 	H 	0.34702	0.55883	0.82622	0.063
Mof_H 	H 	0.06373	0.59878	0.87164	0.055
Mof_H 	H 	0.1942	0.0858	0.1804	-0.009
Mof_H 	H 	0.1741	0.0615	0.155	-0.007
Mof_H 	H 	0.1576	0.0717	0.1905	-0.004
Mof_H 	H 	0.43638	0.1298	0.09921	0.059
Mof_H 	H 	0.43616	0.09844	0.12691	0.045
Mof_H 	H 	0.18089	0.08648	0.19748	0.061
Mof_H 	H 	0.19353	0.0711	0.15614	0.063
Mof_H 	H 	0.15298	0.05883	0.17378	0.061
Mof_H 	H 	0.43627	0.09878	0.12836	0.055
Mof_H 	H 	0.1942	0.5858	0.6804	-0.008
Mof_H 	H 	0.1741	0.5615	0.655	-0.005
Mof_H 	H 	0.1576	0.5717	0.6905	-0.003
Mof_H 	H 	0.43638	0.6298	0.59921	0.06
Mof_H 	H 	0.43616	0.59844	0.62691	0.045
Mof_H 	H 	0.18089	0.58648	0.69748	0.063
Mof_H 	H 	0.19353	0.5711	0.65614	0.064
Mof_H 	H 	0.15298	0.55883	0.67378	0.062
Mof_H 	H 	0.43627	0.59878	0.62836	0.056
Mof_H 	H 	0.6942	0.0858	0.6804	-0.009
Mof_H 	H 	0.6741	0.0615	0.655	-0.007
Mof_H 	H 	0.6576	0.0717	0.6905	-0.004
Mof_H 	H 	0.93638	0.1298	0.59921	0.06
Mof_H 	H 	0.93616	0.09844	0.62691	0.046
Mof_H 	H 	0.68089	0.08648	0.69748	0.061
Mof_H 	H 	0.69353	0.0711	0.65614	0.063
Mof_H 	H 	0.65298	0.05883	0.67378	0.061
Mof_H 	H 	0.93627	0.09878	0.62836	0.056
Mof_H 	H 	0.6942	0.5858	0.1804	-0.008
Mof_H 	H 	0.6741	0.5615	0.155	-0.005
Mof_H 	H 	0.6576	0.5717	0.1905	-0.003
Mof_H 	H 	0.93638	0.6298	0.09921	0.06
Mof_H 	H 	0.93616	0.59844	0.12691	0.046
Mof_H 	H 	0.68089	0.58648	0.19748	0.063
Mof_H 	H 	0.69353	0.5711	0.15614	0.064
Mof_H 	H 	0.65298	0.55883	0.17378	0.062
Mof_H 	H 	0.93627	0.59878	0.12836	0.057
Mof_H 	H 	0.8058	0.1804	0.0858	-0.009
Mof_H 	H 	0.8259	0.155	0.0615	-0.007
Mof_H 	H 	0.8424	0.1905	0.0717	-0.004
Mof_H 	H 	0.56362	0.09921	0.1298	0.059
Mof_H 	H 	0.56384	0.12691	0.09844	0.045
Mof_H 	H 	0.81911	0.19748	0.08648	0.062
Mof_H 	H 	0.80647	0.15614	0.0711	0.064
Mof_H 	H 	0.84702	0.17378	0.05883	0.061
Mof_H 	H 	0.56373	0.12836	0.09878	0.055
Mof_H 	H 	0.8058	0.6804	0.5858	-0.009
Mof_H 	H 	0.8259	0.655	0.5615	-0.005
Mof_H 	H 	0.8424	0.6905	0.5717	-0.003
Mof_H 	H 	0.56362	0.59921	0.6298	0.06
Mof_H 	H 	0.56384	0.62691	0.59844	0.045
Mof_H 	H 	0.81911	0.69748	0.58648	0.063
Mof_H 	H 	0.80647	0.65614	0.5711	0.065
Mof_H 	H 	0.84702	0.67378	0.55883	0.063
Mof_H 	H 	0.56373	0.62836	0.59878	0.056
Mof_H 	H 	0.3058	0.1804	0.5858	-0.008
Mof_H 	H 	0.3259	0.155	0.5615	-0.005
Mof_H 	H 	0.3424	0.1905	0.5717	-0.003
Mof_H 	H 	0.06362	0.09921	0.6298	0.059
Mof_H 	H 	0.06384	0.12691	0.59844	0.045
Mof_H 	H 	0.31911	0.19748	0.58648	0.063
Mof_H 	H 	0.30647	0.15614	0.5711	0.064
Mof_H 	H 	0.34702	0.17378	0.55883	0.062
Mof_H 	H 	0.06373	0.12836	0.59878	0.055
Mof_H 	H 	0.3058	0.6804	0.0858	-0.009
Mof_H 	H 	0.3259	0.655	0.0615	-0.007
Mof_H 	H 	0.3424	0.6905	0.0717	-0.004
Mof_H 	H 	0.06362	0.59921	0.1298	0.059
Mof_H 	H 	0.06384	0.62691	0.09844	0.044
Mof_H 	H 	0.31911	0.69748	0.08648	0.062
Mof_H 	H 	0.30647	0.65614	0.0711	0.064
Mof_H 	H 	0.34702	0.67378	0.05883	0.061
Mof_H 	H 	0.06373	0.62836	0.09878	0.055
Mof_H 	H 	0.1942	0.8196	0.0858	-0.009
Mof_H 	H 	0.1741	0.845	0.0615	-0.007
Mof_H 	H 	0.1576	0.8095	0.0717	-0.004
Mof_H 	H 	0.43638	0.90079	0.1298	0.06
Mof_H 	H 	0.43616	0.87309	0.09844	0.045
Mof_H 	H 	0.18089	0.80252	0.08648	0.062
Mof_H 	H 	0.19353	0.84386	0.0711	0.064
Mof_H 	H 	0.15298	0.82622	0.05883	0.061
Mof_H 	H 	0.43627	0.87164	0.09878	0.056
Mof_H 	H 	0.1942	0.3196	0.5858	-0.008
Mof_H 	H 	0.1741	0.345	0.5615	-0.005
Mof_H 	H 	0.1576	0.3095	0.5717	-0.003
Mof_H 	H 	0.43638	0.40079	0.6298	0.06
Mof_H 	H 	0.43616	0.37309	0.59844	0.045
Mof_H 	H 	0.18089	0.30252	0.58648	0.063
Mof_H 	H 	0.19353	0.34386	0.5711	0.064
Mof_H 	H 	0.15298	0.32622	0.55883	0.062
Mof_H 	H 	0.43627	0.37164	0.59878	0.056
Mof_H 	H 	0.6942	0.8196	0.5858	-0.009
Mof_H 	H 	0.6741	0.845	0.5615	-0.005
Mof_H 	H 	0.6576	0.8095	0.5717	-0.003
Mof_H 	H 	0.93638	0.90079	0.6298	0.061
Mof_H 	H 	0.93616	0.87309	0.59844	0.046
Mof_H 	H 	0.68089	0.80252	0.58648	0.063
Mof_H 	H 	0.69353	0.84386	0.5711	0.065
Mof_H 	H 	0.65298	0.82622	0.55883	0.063
Mof_H 	H 	0.93627	0.87164	0.59878	0.057
Mof_H 	H 	0.6942	0.3196	0.0858	-0.009
Mof_H 	H 	0.6741	0.345	0.0615	-0.007
Mof_H 	H 	0.6576	0.3095	0.0717	-0.004
Mof_H 	H 	0.93638	0.40079	0.1298	0.06
Mof_H 	H 	0.93616	0.37309	0.09844	0.046
Mof_H 	H 	0.68089	0.30252	0.08648	0.062
Mof_H 	H 	0.69353	0.34386	0.0711	0.064
Mof_H 	H 	0.65298	0.32622	0.05883	0.061
Mof_H 	H 	0.93627	0.37164	0.09878	0.056
Mof_H 	H 	0.8058	0.8196	0.9142	-0.008
Mof_H 	H 	0.8259	0.845	0.9385	-0.003
Mof_H 	H 	0.8424	0.8095	0.9283	-0.002
Mof_H 	H 	0.56362	0.90079	0.8702	0.06
Mof_H 	H 	0.56384	0.87309	0.90156	0.046
Mof_H 	H 	0.81911	0.80252	0.91352	0.064
Mof_H 	H 	0.80647	0.84386	0.9289	0.066
Mof_H 	H 	0.84702	0.82622	0.94117	0.064
Mof_H 	H 	0.56373	0.87164	0.90122	0.057
Mof_H 	H 	0.8058	0.3196	0.4142	-0.009
Mof_H 	H 	0.8259	0.345	0.4385	-0.005
Mof_H 	H 	0.8424	0.3095	0.4283	-0.003
Mof_H 	H 	0.56362	0.40079	0.3702	0.06
Mof_H 	H 	0.56384	0.37309	0.40156	0.045
Mof_H 	H 	0.81911	0.30252	0.41352	0.063
Mof_H 	H 	0.80647	0.34386	0.4289	0.065
Mof_H 	H 	0.84702	0.32622	0.44117	0.063
Mof_H 	H 	0.56373	0.37164	0.40122	0.056
Mof_H 	H 	0.3058	0.8196	0.4142	-0.009
Mof_H 	H 	0.3259	0.845	0.4385	-0.005
Mof_H 	H 	0.3424	0.8095	0.4283	-0.003
Mof_H 	H 	0.06362	0.90079	0.3702	0.059
Mof_H 	H 	0.06384	0.87309	0.40156	0.045
Mof_H 	H 	0.31911	0.80252	0.41352	0.063
Mof_H 	H 	0.30647	0.84386	0.4289	0.065
Mof_H 	H 	0.34702	0.82622	0.44117	0.063
Mof_H 	H 	0.06373	0.87164	0.40122	0.055
Mof_H 	H 	0.3058	0.3196	0.9142	-0.008
Mof_H 	H 	0.3259	0.345	0.9385	-0.004
Mof_H 	H 	0.3424	0.3095	0.9283	-0.002
Mof_H 	H 	0.06362	0.40079	0.8702	0.059
Mof_H 	H 	0.06384	0.37309	0.90156	0.045
Mof_H 	H 	0.31911	0.30252	0.91352	0.064
Mof_H 	H 	0.30647	0.34386	0.9289	0.066
Mof_H 	H 	0.34702	0.32622	0.94117	0.064
Mof_H 	H 	0.06373	0.37164	0.90122	0.056
Mof_H 	H 	0.1942	0.1804	0.9142	-0.008
Mof_H 	H 	0.1741	0.155	0.9385	-0.004
Mof_H 	H 	0.1576	0.1905	0.9283	-0.002
Mof_H 	H 	0.43638	0.09921	0.8702	0.059
Mof_H 	H 	0.43616	0.12691	0.90156	0.046
Mof_H 	H 	0.18089	0.19748	0.91352	0.064
Mof_H 	H 	0.19353	0.15614	0.9289	0.065
Mof_H 	H 	0.15298	0.17378	0.94117	0.063
Mof_H 	H 	0.43627	0.12836	0.90122	0.056
Mof_H 	H 	0.1942	0.6804	0.4142	-0.008
Mof_H 	H 	0.1741	0.655	0.4385	-0.005
Mof_H 	H 	0.1576	0.6905	0.4283	-0.003
Mof_H 	H 	0.43638	0.59921	0.3702	0.06
Mof_H 	H 	0.43616	0.62691	0.40156	0.045
Mof_H 	H 	0.18089	0.69748	0.41352	0.063
Mof_H 	H 	0.19353	0.65614	0.4289	0.064
Mof_H 	H 	0.15298	0.67378	0.44117	0.062
Mof_H 	H 	0.43627	0.62836	0.40122	0.056
Mof_H 	H 	0.6942	0.1804	0.4142	-0.008
Mof_H 	H 	0.6741	0.155	0.4385	-0.005
Mof_H 	H 	0.6576	0.1905	0.4283	-0.003
Mof_H 	H 	0.93638	0.09921	0.3702	0.06
Mof_H 	H 	0.93616	0.12691	0.40156	0.046
Mof_H 	H 	0.68089	0.19748	0.41352	0.063
Mof_H 	H 	0.69353	0.15614	0.4289	0.064
Mof_H 	H 	0.65298	0.17378	0.44117	0.062
Mof_H 	H 	0.93627	0.12836	0.40122	0.057
Mof_H 	H 	0.6942	0.6804	0.9142	-0.008
Mof_H 	H 	0.6741	0.655	0.9385	-0.004
Mof_H 	H 	0.6576	0.6905	0.9283	-0.002
Mof_H 	H 	0.93638	0.59921	0.8702	0.06
Mof_H 	H 	0.93616	0.62691	0.90156	0.047
Mof_H 	H 	0.68089	0.69748	0.91352	0.064
Mof_H 	H 	0.69353	0.65614	0.9289	0.066
Mof_H 	H 	0.65298	0.67378	0.94117	0.064
Mof_H 	H 	0.93627	0.62836	0.90122	0.057
Mof_H 	H 	0.1804	0.9142	0.1942	-0.008
Mof_H 	H 	0.155	0.9385	0.1741	-0.004
Mof_H 	H 	0.1905	0.9283	0.1576	-0.002
Mof_H 	H 	0.09921	0.8702	0.43638	0.059
Mof_H 	H 	0.12691	0.90156	0.43616	0.046
Mof_H 	H 	0.19748	0.91352	0.18089	0.064
Mof_H 	H 	0.15614	0.9289	0.19353	0.065
Mof_H 	H 	0.17378	0.94117	0.15298	0.063
Mof_H 	H 	0.12836	0.90122	0.43627	0.056
Mof_H 	H 	0.1804	0.4142	0.6942	-0.008
Mof_H 	H 	0.155	0.4385	0.6741	-0.005
Mof_H 	H 	0.1905	0.4283	0.6576	-0.003
Mof_H 	H 	0.09921	0.3702	0.93638	0.06
Mof_H 	H 	0.12691	0.40156	0.93616	0.046
Mof_H 	H 	0.19748	0.41352	0.68089	0.063
Mof_H 	H 	0.15614	0.4289	0.69353	0.064
Mof_H 	H 	0.17378	0.44117	0.65298	0.062
Mof_H 	H 	0.12836	0.40122	0.93627	0.057
Mof_H 	H 	0.6804	0.9142	0.6942	-0.008
Mof_H 	H 	0.655	0.9385	0.6741	-0.004
Mof_H 	H 	0.6905	0.9283	0.6576	-0.002
Mof_H 	H 	0.59921	0.8702	0.93638	0.06
Mof_H 	H 	0.62691	0.90156	0.93616	0.047
Mof_H 	H 	0.69748	0.91352	0.68089	0.064
Mof_H 	H 	0.65614	0.9289	0.69353	0.066
Mof_H 	H 	0.67378	0.94117	0.65298	0.064
Mof_H 	H 	0.62836	0.90122	0.93627	0.057
Mof_H 	H 	0.6804	0.4142	0.1942	-0.008
Mof_H 	H 	0.655	0.4385	0.1741	-0.005
Mof_H 	H 	0.6905	0.4283	0.1576	-0.003
Mof_H 	H 	0.59921	0.3702	0.43638	0.06
Mof_H 	H 	0.62691	0.40156	0.43616	0.045
Mof_H 	H 	0.69748	0.41352	0.18089	0.063
Mof_H 	H 	0.65614	0.4289	0.19353	0.064
Mof_H 	H 	0.67378	0.44117	0.15298	0.062
Mof_H 	H 	0.62836	0.40122	0.43627	0.056
Mof_H 	H 	0.8196	0.9142	0.8058	-0.008
Mof_H 	H 	0.845	0.9385	0.8259	-0.003
Mof_H 	H 	0.8095	0.9283	0.8424	-0.002
Mof_H 	H 	0.90079	0.8702	0.56362	0.06
Mof_H 	H 	0.87309	0.90156	0.56384	0.046
Mof_H 	H 	0.80252	0.91352	0.81911	0.064
Mof_H 	H 	0.84386	0.9289	0.80647	0.066
Mof_H 	H 	0.82622	0.94117	0.84702	0.064
Mof_H 	H 	0.87164	0.90122	0.56373	0.057
Mof_H 	H 	0.8196	0.4142	0.3058	-0.009
Mof_H 	H 	0.845	0.4385	0.3259	-0.005
Mof_H 	H 	0.8095	0.4283	0.3424	-0.003
Mof_H 	H 	0.90079	0.3702	0.06362	0.059
Mof_H 	H 	0.87309	0.40156	0.06384	0.045
Mof_H 	H 	0.80252	0.41352	0.31911	0.063
Mof_H 	H 	0.84386	0.4289	0.30647	0.065
Mof_H 	H 	0.82622	0.44117	0.34702	0.063
Mof_H 	H 	0.87164	0.40122	0.06373	0.055
Mof_H 	H 	0.3196	0.9142	0.3058	-0.008
Mof_H 	H 	0.345	0.9385	0.3259	-0.004
Mof_H 	H 	0.3095	0.9283	0.3424	-0.002
Mof_H 	H 	0.40079	0.8702	0.06362	0.059
Mof_H 	H 	0.37309	0.90156	0.06384	0.045
Mof_H 	H 	0.30252	0.91352	0.31911	0.064
Mof_H 	H 	0.34386	0.9289	0.30647	0.066
Mof_H 	H 	0.32622	0.94117	0.34702	0.064
Mof_H 	H 	0.37164	0.90122	0.06373	0.056
Mof_H 	H 	0.3196	0.4142	0.8058	-0.009
Mof_H 	H 	0.345	0.4385	0.8259	-0.005
Mof_H 	H 	0.3095	0.4283	0.8424	-0.003
Mof_H 	H 	0.40079	0.3702	0.56362	0.06
Mof_H 	H 	0.37309	0.40156	0.56384	0.045
Mof_H 	H 	0.30252	0.41352	0.81911	0.063
Mof_H 	H 	0.34386	0.4289	0.80647	0.065
Mof_H 	H 	0.32622	0.44117	0.84702	0.063
Mof_H 	H 	0.37164	0.40122	0.56373	0.056
Mof_H 	H 	0.8196	0.0858	0.1942	-0.009
Mof_H 	H 	0.845	0.0615	0.1741	-0.007
Mof_H 	H 	0.8095	0.0717	0.1576	-0.004
Mof_H 	H 	0.90079	0.1298	0.43638	0.06
Mof_H 	H 	0.87309	0.09844	0.43616	0.045
Mof_H 	H 	0.80252	0.08648	0.18089	0.062
Mof_H 	H 	0.84386	0.0711	0.19353	0.064
Mof_H 	H 	0.82622	0.05883	0.15298	0.061
Mof_H 	H 	0.87164	0.09878	0.43627	0.056
Mof_H 	H 	0.8196	0.5858	0.6942	-0.009
Mof_H 	H 	0.845	0.5615	0.6741	-0.005
Mof_H 	H 	0.8095	0.5717	0.6576	-0.003
Mof_H 	H 	0.90079	0.6298	0.93638	0.061
Mof_H 	H 	0.87309	0.59844	0.93616	0.046
Mof_H 	H 	0.80252	0.58648	0.68089	0.063
Mof_H 	H 	0.84386	0.5711	0.69353	0.065
Mof_H 	H 	0.82622	0.55883	0.65298	0.063
Mof_H 	H 	0.87164	0.59878	0.93627	0.057
Mof_H 	H 	0.3196	0.0858	0.6942	-0.009
Mof_H 	H 	0.345	0.0615	0.6741	-0.007
Mof_H 	H 	0.3095	0.0717	0.6576	-0.004
Mof_H 	H 	0.40079	0.1298	0.93638	0.06
Mof_H 	H 	0.37309	0.09844	0.93616	0.046
Mof_H 	H 	0.30252	0.08648	0.68089	0.062
Mof_H 	H 	0.34386	0.0711	0.69353	0.064
Mof_H 	H 	0.32622	0.05883	0.65298	0.061
Mof_H 	H 	0.37164	0.09878	0.93627	0.056
Mof_H 	H 	0.3196	0.5858	0.1942	-0.008
Mof_H 	H 	0.345	0.5615	0.1741	-0.005
Mof_H 	H 	0.3095	0.5717	0.1576	-0.003
Mof_H 	H 	0.40079	0.6298	0.43638	0.06
Mof_H 	H 	0.37309	0.59844	0.43616	0.045
Mof_H 	H 	0.30252	0.58648	0.18089	0.063
Mof_H 	H 	0.34386	0.5711	0.19353	0.064
Mof_H 	H 	0.32622	0.55883	0.15298	0.062
Mof_H 	H 	0.37164	0.59878	0.43627	0.056
Mof_H 	H 	0.1804	0.0858	0.8058	-0.009
Mof_H 	H 	0.155	0.0615	0.8259	-0.007
Mof_H 	H 	0.1905	0.0717	0.8424	-0.004
Mof_H 	H 	0.09921	0.1298	0.56362	0.059
Mof_H 	H 	0.12691	0.09844	0.56384	0.045
Mof_H 	H 	0.19748	0.08648	0.81911	0.062
Mof_H 	H 	0.15614	0.0711	0.80647	0.064
Mof_H 	H 	0.17378	0.05883	0.84702	0.061
Mof_H 	H 	0.12836	0.09878	0.56373	0.055
Mof_H 	H 	0.1804	0.5858	0.3058	-0.008
Mof_H 	H 	0.155	0.5615	0.3259	-0.005
Mof_H 	H 	0.1905	0.5717	0.3424	-0.003
Mof_H 	H 	0.09921	0.6298	0.06362	0.059
Mof_H 	H 	0.12691	0.59844	0.06384	0.045
Mof_H 	H 	0.19748	0.58648	0.31911	0.063
Mof_H 	H 	0.15614	0.5711	0.30647	0.064
Mof_H 	H 	0.17378	0.55883	0.34702	0.062
Mof_H 	H 	0.12836	0.59878	0.06373	0.055
Mof_H 	H 	0.6804	0.0858	0.3058	-0.009
Mof_H 	H 	0.655	0.0615	0.3259	-0.007
Mof_H 	H 	0.6905	0.0717	0.3424	-0.004
Mof_H 	H 	0.59921	0.1298	0.06362	0.059
Mof_H 	H 	0.62691	0.09844	0.06384	0.044
Mof_H 	H 	0.69748	0.08648	0.31911	0.062
Mof_H 	H 	0.65614	0.0711	0.30647	0.064
Mof_H 	H 	0.67378	0.05883	0.34702	0.061
Mof_H 	H 	0.62836	0.09878	0.06373	0.055
Mof_H 	H 	0.6804	0.5858	0.8058	-0.009
Mof_H 	H 	0.655	0.5615	0.8259	-0.005
Mof_H 	H 	0.6905	0.5717	0.8424	-0.003
Mof_H 	H 	0.59921	0.6298	0.56362	0.06
Mof_H 	H 	0.62691	0.59844	0.56384	0.045
Mof_H 	H 	0.69748	0.58648	0.81911	0.063
Mof_H 	H 	0.65614	0.5711	0.80647	0.065
Mof_H 	H 	0.67378	0.55883	0.84702	0.063
Mof_H 	H 	0.62836	0.59878	0.56373	0.056
Mof_H 	H 	0.9142	0.8058	0.8196	-0.008
Mof_H 	H 	0.9385	0.8259	0.845	-0.003
Mof_H 	H 	0.9283	0.8424	0.8095	-0.002
Mof_H 	H 	0.8702	0.56362	0.90079	0.06
Mof_H 	H 	0.90156	0.56384	0.87309	0.046
Mof_H 	H 	0.91352	0.81911	0.80252	0.064
Mof_H 	H 	0.9289	0.80647	0.84386	0.066
Mof_H 	H 	0.94117	0.84702	0.82622	0.064
Mof_H 	H 	0.90122	0.56373	0.87164	0.057
Mof_H 	H 	0.9142	0.3058	0.3196	-0.008
Mof_H 	H 	0.9385	0.3259	0.345	-0.004
Mof_H 	H 	0.9283	0.3424	0.3095	-0.002
Mof_H 	H 	0.8702	0.06362	0.40079	0.059
Mof_H 	H 	0.90156	0.06384	0.37309	0.045
Mof_H 	H 	0.91352	0.31911	0.30252	0.064
Mof_H 	H 	0.9289	0.30647	0.34386	0.066
Mof_H 	H 	0.94117	0.34702	0.32622	0.064
Mof_H 	H 	0.90122	0.06373	0.37164	0.056
Mof_H 	H 	0.4142	0.8058	0.3196	-0.009
Mof_H 	H 	0.4385	0.8259	0.345	-0.005
Mof_H 	H 	0.4283	0.8424	0.3095	-0.003
Mof_H 	H 	0.3702	0.56362	0.40079	0.06
Mof_H 	H 	0.40156	0.56384	0.37309	0.045
Mof_H 	H 	0.41352	0.81911	0.30252	0.063
Mof_H 	H 	0.4289	0.80647	0.34386	0.065
Mof_H 	H 	0.44117	0.84702	0.32622	0.063
Mof_H 	H 	0.40122	0.56373	0.37164	0.056
Mof_H 	H 	0.4142	0.3058	0.8196	-0.009
Mof_H 	H 	0.4385	0.3259	0.845	-0.005
Mof_H 	H 	0.4283	0.3424	0.8095	-0.003
Mof_H 	H 	0.3702	0.06362	0.90079	0.059
Mof_H 	H 	0.40156	0.06384	0.87309	0.045
Mof_H 	H 	0.41352	0.31911	0.80252	0.063
Mof_H 	H 	0.4289	0.30647	0.84386	0.065
Mof_H 	H 	0.44117	0.34702	0.82622	0.063
Mof_H 	H 	0.40122	0.06373	0.87164	0.055
Mof_H 	H 	0.9142	0.1942	0.1804	-0.008
Mof_H 	H 	0.9385	0.1741	0.155	-0.004
Mof_H 	H 	0.9283	0.1576	0.1905	-0.002
Mof_H 	H 	0.8702	0.43638	0.09921	0.059
Mof_H 	H 	0.90156	0.43616	0.12691	0.046
Mof_H 	H 	0.91352	0.18089	0.19748	0.064
Mof_H 	H 	0.9289	0.19353	0.15614	0.065
Mof_H 	H 	0.94117	0.15298	0.17378	0.063
Mof_H 	H 	0.90122	0.43627	0.12836	0.056
Mof_H 	H 	0.9142	0.6942	0.6804	-0.008
Mof_H 	H 	0.9385	0.6741	0.655	-0.004
Mof_H 	H 	0.9283	0.6576	0.6905	-0.002
Mof_H 	H 	0.8702	0.93638	0.59921	0.06
Mof_H 	H 	0.90156	0.93616	0.62691	0.047
Mof_H 	H 	0.91352	0.68089	0.69748	0.064
Mof_H 	H 	0.9289	0.69353	0.65614	0.066
Mof_H 	H 	0.94117	0.65298	0.67378	0.064
Mof_H 	H 	0.90122	0.93627	0.62836	0.057
Mof_H 	H 	0.4142	0.1942	0.6804	-0.008
Mof_H 	H 	0.4385	0.1741	0.655	-0.005
Mof_H 	H 	0.4283	0.1576	0.6905	-0.003
Mof_H 	H 	0.3702	0.43638	0.59921	0.06
Mof_H 	H 	0.40156	0.43616	0.62691	0.045
Mof_H 	H 	0.41352	0.18089	0.69748	0.063
Mof_H 	H 	0.4289	0.19353	0.65614	0.064
Mof_H 	H 	0.44117	0.15298	0.67378	0.062
Mof_H 	H 	0.40122	0.43627	0.62836	0.056
Mof_H 	H 	0.4142	0.6942	0.1804	-0.008
Mof_H 	H 	0.4385	0.6741	0.155	-0.005
Mof_H 	H 	0.4283	0.6576	0.1905	-0.003
Mof_H 	H 	0.3702	0.93638	0.09921	0.06
Mof_H 	H 	0.40156	0.93616	0.12691	0.046
Mof_H 	H 	0.41352	0.68089	0.19748	0.063
Mof_H 	H 	0.4289	0.69353	0.15614	0.064
Mof_H 	H 	0.44117	0.65298	0.17378	0.062
Mof_H 	H 	0.40122	0.93627	0.12836	0.057
Mof_H 	H 	0.0858	0.8058	0.1804	-0.009
Mof_H 	H 	0.0615	0.8259	0.155	-0.007
Mof_H 	H 	0.0717	0.8424	0.1905	-0.004
Mof_H 	H 	0.1298	0.56362	0.09921	0.059
Mof_H 	H 	0.09844	0.56384	0.12691	0.045
Mof_H 	H 	0.08648	0.81911	0.19748	0.062
Mof_H 	H 	0.0711	0.80647	0.15614	0.064
Mof_H 	H 	0.05883	0.84702	0.17378	0.061
Mof_H 	H 	0.09878	0.56373	0.12836	0.055
Mof_H 	H 	0.0858	0.3058	0.6804	-0.009
Mof_H 	H 	0.0615	0.3259	0.655	-0.007
Mof_H 	H 	0.0717	0.3424	0.6905	-0.004
Mof_H 	H 	0.1298	0.06362	0.59921	0.059
Mof_H 	H 	0.09844	0.06384	0.62691	0.044
Mof_H 	H 	0.08648	0.31911	0.69748	0.062
Mof_H 	H 	0.0711	0.30647	0.65614	0.064
Mof_H 	H 	0.05883	0.34702	0.67378	0.061
Mof_H 	H 	0.09878	0.06373	0.62836	0.055
Mof_H 	H 	0.5858	0.8058	0.6804	-0.009
Mof_H 	H 	0.5615	0.8259	0.655	-0.005
Mof_H 	H 	0.5717	0.8424	0.6905	-0.003
Mof_H 	H 	0.6298	0.56362	0.59921	0.06
Mof_H 	H 	0.59844	0.56384	0.62691	0.045
Mof_H 	H 	0.58648	0.81911	0.69748	0.063
Mof_H 	H 	0.5711	0.80647	0.65614	0.065
Mof_H 	H 	0.55883	0.84702	0.67378	0.063
Mof_H 	H 	0.59878	0.56373	0.62836	0.056
Mof_H 	H 	0.5858	0.3058	0.1804	-0.008
Mof_H 	H 	0.5615	0.3259	0.155	-0.005
Mof_H 	H 	0.5717	0.3424	0.1905	-0.003
Mof_H 	H 	0.6298	0.06362	0.09921	0.059
Mof_H 	H 	0.59844	0.06384	0.12691	0.045
Mof_H 	H 	0.58648	0.31911	0.19748	0.063
Mof_H 	H 	0.5711	0.30647	0.15614	0.064
Mof_H 	H 	0.55883	0.34702	0.17378	0.062
Mof_H 	H 	0.59878	0.06373	0.12836	0.055
Mof_H 	H 	0.0858	0.1942	0.8196	-0.009
Mof_H 	H 	0.0615	0.1741	0.845	-0.007
Mof_H 	H 	0.0717	0.1576	0.8095	-0.004
Mof_H 	H 	0.1298	0.43638	0.90079	0.06
Mof_H 	H 	0.09844	0.43616	0.87309	0.045
Mof_H 	H 	0.08648	0.18089	0.80252	0.062
Mof_H 	H 	0.0711	0.19353	0.84386	0.064
Mof_H 	H 	0.05883	0.15298	0.82622	0.061
Mof_H 	H 	0.09878	0.43627	0.87164	0.056
Mof_H 	H 	0.0858	0.6942	0.3196	-0.009
Mof_H 	H 	0.0615	0.6741	0.345	-0.007
Mof_H 	H 	0.0717	0.6576	0.3095	-0.004
Mof_H 	H 	0.1298	0.93638	0.40079	0.06
Mof_H 	H 	0.09844	0.93616	0.37309	0.046
Mof_H 	H 	0.08648	0.68089	0.30252	0.062
Mof_H 	H 	0.0711	0.69353	0.34386	0.064
Mof_H 	H 	0.05883	0.65298	0.32622	0.061
Mof_H 	H 	0.09878	0.93627	0.37164	0.056
Mof_H 	H 	0.5858	0.1942	0.3196	-0.008
Mof_H 	H 	0.5615	0.1741	0.345	-0.005
Mof_H 	H 	0.5717	0.1576	0.3095	-0.003
Mof_H 	H 	0.6298	0.43638	0.40079	0.06
Mof_H 	H 	0.59844	0.43616	0.37309	0.045
Mof_H 	H 	0.58648	0.18089	0.30252	0.063
Mof_H 	H 	0.5711	0.19353	0.34386	0.064
Mof_H 	H 	0.55883	0.15298	0.32622	0.062
Mof_H 	H 	0.59878	0.43627	0.37164	0.056
Mof_H 	H 	0.5858	0.6942	0.8196	-0.009
Mof_H 	H 	0.5615	0.6741	0.845	-0.005
Mof_H 	H 	0.5717	0.6576	0.8095	-0.003
Mof_H 	H 	0.6298	0.93638	0.90079	0.061
Mof_H 	H 	0.59844	0.93616	0.87309	0.046
Mof_H 	H 	0.58648	0.68089	0.80252	0.063
Mof_H 	H 	0.5711	0.69353	0.84386	0.065
Mof_H 	H 	0.55883	0.65298	0.82622	0.063
Mof_H 	H 	0.59878	0.93627	0.87164	0.057
Mof_Co	Co	1.73444e-33	0.19781	-0	1.125
Mof_Co	Co	-0	0.27284	-0	1.115
Mof_Co	Co	1.22814e-32	0.69781	0.5	1.133
Mof_Co	Co	5.34359e-33	0.77284	0.5	1.123
Mof_Co	Co	0.5	0.19781	0.5	1.141
Mof_Co	Co	0.5	0.27284	0.5	1.131
Mof_Co	Co	0.5	0.69781	-0	1.133
Mof_Co	Co	0.5	0.77284	-0	1.123
Mof_Co	Co	-0	0.80219	-0	1.126
Mof_Co	Co	6.93777e-33	0.72716	-0	1.115
Mof_Co	Co	-5.06307e-33	0.30219	0.5	1.133
Mof_Co	Co	5.34359e-33	0.22716	0.5	1.123
Mof_Co	Co	0.5	0.80219	0.5	1.141
Mof_Co	Co	0.5	0.72716	0.5	1.131
Mof_Co	Co	0.5	0.30219	-0	1.133
Mof_Co	Co	0.5	0.22716	-0	1.123
Mof_Co	Co	2.47611e-33	1.73444e-33	0.19781	1.125
Mof_Co	Co	1.02299e-33	0	0.27284	1.115
Mof_Co	Co	1.64919e-32	0.5	0.69781	1.133
Mof_Co	Co	-4.04008e-33	0.5	0.77284	1.123
Mof_Co	Co	0.5	6.93777e-33	0.69781	1.133
Mof_Co	Co	0.5	0	0.77284	1.123
Mof_Co	Co	0.5	0.5	0.19781	1.141
Mof_Co	Co	0.5	0.5	0.27284	1.131
Mof_Co	Co	3.00773e-33	0	0.80219	1.126
Mof_Co	Co	9.66418e-33	6.93777e-33	0.72716	1.115
Mof_Co	Co	-2.33585e-33	0.5	0.30219	1.133
Mof_Co	Co	7.78948e-33	0.5	0.22716	1.123
Mof_Co	Co	0.5	0	0.30219	1.133
Mof_Co	Co	0.5	1.73444e-33	0.22716	1.123
Mof_Co	Co	0.5	0.5	0.80219	1.141
Mof_Co	Co	0.5	0.5	0.72716	1.131
Mof_Co	Co	0.19781	0	-0	1.125
Mof_Co	Co	0.27284	0	-0	1.115
Mof_Co	Co	0.19781	0.5	0.5	1.141
Mof_Co	Co	0.27284	0.5	0.5	1.131
Mof_Co	Co	0.69781	0	0.5	1.133
Mof_Co	Co	0.77284	0	0.5	1.123
Mof_Co	Co	0.69781	0.5	-0	1.133
Mof_Co	Co	0.77284	0.5	-0	1.123
Mof_Co	Co	0.80219	0	-0	1.126
Mof_Co	Co	0.72716	0	-0	1.115
Mof_Co	Co	0.80219	0.5	0.5	1.141
Mof_Co	Co	0.72716	0.5	0.5	1.131
Mof_Co	Co	0.30219	0	0.5	1.133
Mof_Co	Co	0.22716	0	0.5	1.123
Mof_Co	Co	0.30219	0.5	-0	1.133
Mof_Co	Co	0.22716	0.5	-0	1.123
Mof_Co	Co	0.87406	0.37406	0.12594	1.229
Mof_Co	Co	0.82049	0.32049	0.17951	1.125
Mof_Co	Co	0.12594	0.62594	0.12594	1.229
Mof_Co	Co	0.17951	0.67951	0.17951	1.125
Mof_Co	Co	0.12594	0.37406	0.87406	1.229
Mof_Co	Co	0.17951	0.32049	0.82049	1.125
Mof_Co	Co	0.87406	0.62594	0.87406	1.229
Mof_Co	Co	0.82049	0.67951	0.82049	1.125
Mof_Co	Co	0.12594	0.87406	0.37406	1.229
Mof_Co	Co	0.17951	0.82049	0.32049	1.125
Mof_Co	Co	0.12594	0.12594	0.62594	1.229
Mof_Co	Co	0.17951	0.17951	0.67951	1.125
Mof_Co	Co	0.87406	0.12594	0.37406	1.229
Mof_Co	Co	0.82049	0.17951	0.32049	1.125
Mof_Co	Co	0.87406	0.87406	0.62594	1.229
Mof_Co	Co	0.82049	0.82049	0.67951	1.125
Mof_Co	Co	0.37406	0.12594	0.87406	1.229
Mof_Co	Co	0.32049	0.17951	0.82049	1.125
Mof_Co	Co	0.37406	0.62594	0.37406	1.229
Mof_Co	Co	0.32049	0.67951	0.32049	1.125
Mof_Co	Co	0.62594	0.12594	0.12594	1.229
Mof_Co	Co	0.67951	0.17951	0.17951	1.125
Mof_Co	Co	0.62594	0.62594	0.62594	1.229
Mof_Co	Co	0.67951	0.67951	0.67951	1.125
Mof_Co	Co	0.37406	0.87406	0.12594	1.229
Mof_Co	Co	0.32049	0.82049	0.17951	1.125
Mof_Co	Co	0.37406	0.37406	0.62594	1.229
Mof_Co	Co	0.32049	0.32049	0.67951	1.125
Mof_Co	Co	0.62594	0.87406	0.87406	1.229
Mof_Co	Co	0.67951	0.82049	0.82049	1.125
Mof_Co	Co	0.62594	0.37406	0.37406	1.229
Mof_Co	Co	0.67951	0.32049	0.32049	1.125
Mof_Co	Co	0.37406	0.87406	0.87406	1.229
Mof_Co	Co	0.32049	0.82049	0.82049	1.125
Mof_Co	Co	0.37406	0.37406	0.37406	1.229
Mof_Co	Co	0.32049	0.32049	0.32049	1.125
Mof_Co	Co	0.62594	0.12594	0.87406	1.229
Mof_Co	Co	0.67951	0.17951	0.82049	1.125
Mof_Co	Co	0.62594	0.62594	0.37406	1.229
Mof_Co	Co	0.67951	0.67951	0.32049	1.125
Mof_Co	Co	0.37406	0.12594	0.12594	1.229
Mof_Co	Co	0.32049	0.17951	0.17951	1.125
Mof_Co	Co	0.37406	0.62594	0.62594	1.229
Mof_Co	Co	0.32049	0.67951	0.67951	1.125
Mof_Co	Co	0.62594	0.87406	0.12594	1.229
Mof_Co	Co	0.67951	0.82049	0.17951	1.125
Mof_Co	Co	0.62594	0.37406	0.62594	1.229
Mof_Co	Co	0.67951	0.32049	0.67951	1.125
Mof_Co	Co	0.87406	0.12594	0.62594	1.229
Mof_Co	Co	0.82049	0.17951	0.67951	1.125
Mof_Co	Co	0.12594	0.12594	0.37406	1.229
Mof_Co	Co	0.17951	0.17951	0.32049	1.125
Mof_Co	Co	0.12594	0.87406	0.62594	1.229
Mof_Co	Co	0.17951	0.82049	0.67951	1.125
Mof_Co	Co	0.87406	0.87406	0.37406	1.229
Mof_Co	Co	0.82049	0.82049	0.32049	1.125
Mof_Co	Co	0.12594	0.37406	0.12594	1.229
Mof_Co	Co	0.17951	0.32049	0.17951	1.125
Mof_Co	Co	0.12594	0.62594	0.87406	1.229
Mof_Co	Co	0.17951	0.67951	0.82049	1.125
Mof_Co	Co	0.87406	0.37406	0.87406	1.229
Mof_Co	Co	0.82049	0.32049	0.82049	1.125
Mof_Co	Co	0.87406	0.62594	0.12594	1.229
Mof_Co	Co	0.82049	0.67951	0.17951	1.125
Mof_O 	O 	0.96365	0.2631	0.03635	-0.458
Mof_O 	O 	0.96392	0.2055	0.03608	-0.468
Mof_O 	O 	0.84999	0.29515	0.15001	-0.535
Mof_O 	O 	0.88464	0.32516	0.11536	-0.482
Mof_O 	O 	0.8774	0.4288	0.1226	-0.533
Mof_C 	C 	0.9533	0.2338	0.0467	0.381
Mof_C 	C 	0.92588	0.2353	0.07412	-0.097
Mof_C 	C 	0.91375	0.2037	0.08625	-0.049
Mof_H 	H 	0.9226	0.1832	0.0774	0.054
Mof_C 	C 	0.88744	0.2026	0.11256	0.032
Mof_C 	C 	0.87545	0.2338	0.12455	-0.042
Mof_H 	H 	0.8585	0.2341	0.1415	0.035
Mof_C 	C 	0.8878	0.2644	0.1122	-0.106
Mof_C 	C 	0.91306	0.2657	0.08694	0.03
Mof_H 	H 	0.9212	0.2868	0.0788	0.036
Mof_C 	C 	0.8731	0.299	0.1269	0.42
Mof_C 	C 	0.87315	0.1696	0.12685	-0.133
Mof_H 	H 	0.8609	0.43938	0.1391	0.173
Mof_O 	O 	0.8991	0.413	0.1009	-0.08
Mof_O 	O 	0.96365	0.7631	0.53635	-0.453
Mof_O 	O 	0.96392	0.7055	0.53608	-0.463
Mof_O 	O 	0.84999	0.79515	0.65001	-0.534
Mof_O 	O 	0.88464	0.82516	0.61536	-0.482
Mof_O 	O 	0.8774	0.9288	0.6226	-0.535
Mof_C 	C 	0.9533	0.7338	0.5467	0.38
Mof_C 	C 	0.92588	0.7353	0.57412	-0.094
Mof_C 	C 	0.91375	0.7037	0.58625	-0.05
Mof_H 	H 	0.9226	0.6832	0.5774	0.056
Mof_C 	C 	0.88744	0.7026	0.61256	0.034
Mof_C 	C 	0.87545	0.7338	0.62455	-0.044
Mof_H 	H 	0.8585	0.7341	0.6415	0.035
Mof_C 	C 	0.8878	0.7644	0.6122	-0.104
Mof_C 	C 	0.91306	0.7657	0.58694	0.029
Mof_H 	H 	0.9212	0.7868	0.5788	0.038
Mof_C 	C 	0.8731	0.799	0.6269	0.42
Mof_C 	C 	0.87315	0.6696	0.62685	-0.135
Mof_H 	H 	0.8609	0.93938	0.6391	0.177
Mof_O 	O 	0.8991	0.913	0.6009	-0.079
Mof_O 	O 	0.46365	0.2631	0.53635	-0.462
Mof_O 	O 	0.46392	0.2055	0.53608	-0.472
Mof_O 	O 	0.34999	0.29515	0.65001	-0.535
Mof_O 	O 	0.38464	0.32516	0.61536	-0.482
Mof_O 	O 	0.3774	0.4288	0.6226	-0.533
Mof_C 	C 	0.4533	0.2338	0.5467	0.382
Mof_C 	C 	0.42588	0.2353	0.57412	-0.098
Mof_C 	C 	0.41375	0.2037	0.58625	-0.048
Mof_H 	H 	0.4226	0.1832	0.5774	0.053
Mof_C 	C 	0.38744	0.2026	0.61256	0.031
Mof_C 	C 	0.37545	0.2338	0.62455	-0.042
Mof_H 	H 	0.3585	0.2341	0.6415	0.035
Mof_C 	C 	0.3878	0.2644	0.6122	-0.106
Mof_C 	C 	0.41306	0.2657	0.58694	0.031
Mof_H 	H 	0.4212	0.2868	0.5788	0.036
Mof_C 	C 	0.3731	0.299	0.6269	0.42
Mof_C 	C 	0.37315	0.1696	0.62685	-0.132
Mof_H 	H 	0.3609	0.43938	0.6391	0.173
Mof_O 	O 	0.3991	0.413	0.6009	-0.08
Mof_O 	O 	0.46365	0.7631	0.03635	-0.466
Mof_O 	O 	0.46392	0.7055	0.03608	-0.476
Mof_O 	O 	0.34999	0.79515	0.15001	-0.535
Mof_O 	O 	0.38464	0.82516	0.11536	-0.483
Mof_O 	O 	0.3774	0.9288	0.1226	-0.534
Mof_C 	C 	0.4533	0.7338	0.0467	0.382
Mof_C 	C 	0.42588	0.7353	0.07412	-0.1
Mof_C 	C 	0.41375	0.7037	0.08625	-0.047
Mof_H 	H 	0.4226	0.6832	0.0774	0.052
Mof_C 	C 	0.38744	0.7026	0.11256	0.03
Mof_C 	C 	0.37545	0.7338	0.12455	-0.041
Mof_H 	H 	0.3585	0.7341	0.1415	0.034
Mof_C 	C 	0.3878	0.7644	0.1122	-0.108
Mof_C 	C 	0.41306	0.7657	0.08694	0.031
Mof_H 	H 	0.4212	0.7868	0.0788	0.034
Mof_C 	C 	0.3731	0.799	0.1269	0.42
Mof_C 	C 	0.37315	0.6696	0.12685	-0.131
Mof_H 	H 	0.3609	0.93938	0.1391	0.176
Mof_O 	O 	0.3991	0.913	0.1009	-0.079
Mof_O 	O 	0.03635	0.7369	0.03635	-0.47
Mof_O 	O 	0.03608	0.7945	0.03608	-0.48
Mof_O 	O 	0.15001	0.70485	0.15001	-0.535
Mof_O 	O 	0.11536	0.67484	0.11536	-0.483
Mof_O 	O 	0.1226	0.5712	0.1226	-0.532
Mof_C 	C 	0.0467	0.7662	0.0467	0.382
Mof_C 	C 	0.07412	0.7647	0.07412	-0.103
Mof_C 	C 	0.08625	0.7963	0.08625	-0.047
Mof_H 	H 	0.0774	0.8168	0.0774	0.051
Mof_C 	C 	0.11256	0.7974	0.11256	0.029
Mof_C 	C 	0.12455	0.7662	0.12455	-0.041
Mof_H 	H 	0.1415	0.7659	0.1415	0.034
Mof_C 	C 	0.1122	0.7356	0.1122	-0.109
Mof_C 	C 	0.08694	0.7343	0.08694	0.032
Mof_H 	H 	0.0788	0.7132	0.0788	0.033
Mof_C 	C 	0.1269	0.701	0.1269	0.42
Mof_C 	C 	0.12685	0.8304	0.12685	-0.131
Mof_H 	H 	0.1391	0.56062	0.1391	0.172
Mof_O 	O 	0.1009	0.587	0.1009	-0.08
Mof_O 	O 	0.03635	0.2369	0.53635	-0.466
Mof_O 	O 	0.03608	0.2945	0.53608	-0.476
Mof_O 	O 	0.15001	0.20485	0.65001	-0.535
Mof_O 	O 	0.11536	0.17484	0.61536	-0.483
Mof_O 	O 	0.1226	0.0712	0.6226	-0.531
Mof_C 	C 	0.0467	0.2662	0.5467	0.382
Mof_C 	C 	0.07412	0.2647	0.57412	-0.1
Mof_C 	C 	0.08625	0.2963	0.58625	-0.047
Mof_H 	H 	0.0774	0.3168	0.5774	0.052
Mof_C 	C 	0.11256	0.2974	0.61256	0.03
Mof_C 	C 	0.12455	0.2662	0.62455	-0.041
Mof_H 	H 	0.1415	0.2659	0.6415	0.034
Mof_C 	C 	0.1122	0.2356	0.6122	-0.108
Mof_C 	C 	0.08694	0.2343	0.58694	0.031
Mof_H 	H 	0.0788	0.2132	0.5788	0.034
Mof_C 	C 	0.1269	0.201	0.6269	0.42
Mof_C 	C 	0.12685	0.3304	0.62685	-0.131
Mof_H 	H 	0.1391	0.06062	0.6391	0.17
Mof_O 	O 	0.1009	0.087	0.6009	-0.081
Mof_O 	O 	0.53635	0.7369	0.53635	-0.462
Mof_O 	O 	0.53608	0.7945	0.53608	-0.471
Mof_O 	O 	0.65001	0.70485	0.65001	-0.535
Mof_O 	O 	0.61536	0.67484	0.61536	-0.482
Mof_O 	O 	0.6226	0.5712	0.6226	-0.533
Mof_C 	C 	0.5467	0.7662	0.5467	0.382
Mof_C 	C 	0.57412	0.7647	0.57412	-0.097
Mof_C 	C 	0.58625	0.7963	0.58625	-0.049
Mof_H 	H 	0.5774	0.8168	0.5774	0.054
Mof_C 	C 	0.61256	0.7974	0.61256	0.032
Mof_C 	C 	0.62455	0.7662	0.62455	-0.043
Mof_H 	H 	0.6415	0.7659	0.6415	0.035
Mof_C 	C 	0.6122	0.7356	0.6122	-0.106
Mof_C 	C 	0.58694	0.7343	0.58694	0.03
Mof_H 	H 	0.5788	0.7132	0.5788	0.036
Mof_C 	C 	0.6269	0.701	0.6269	0.42
Mof_C 	C 	0.62685	0.8304	0.62685	-0.134
Mof_H 	H 	0.6391	0.56062	0.6391	0.173
Mof_O 	O 	0.6009	0.587	0.6009	-0.08
Mof_O 	O 	0.53635	0.2369	0.03635	-0.466
Mof_O 	O 	0.53608	0.2945	0.03608	-0.476
Mof_O 	O 	0.65001	0.20485	0.15001	-0.535
Mof_O 	O 	0.61536	0.17484	0.11536	-0.483
Mof_O 	O 	0.6226	0.0712	0.1226	-0.531
Mof_C 	C 	0.5467	0.2662	0.0467	0.382
Mof_C 	C 	0.57412	0.2647	0.07412	-0.1
Mof_C 	C 	0.58625	0.2963	0.08625	-0.047
Mof_H 	H 	0.5774	0.3168	0.0774	0.052
Mof_C 	C 	0.61256	0.2974	0.11256	0.03
Mof_C 	C 	0.62455	0.2662	0.12455	-0.041
Mof_H 	H 	0.6415	0.2659	0.1415	0.034
Mof_C 	C 	0.6122	0.2356	0.1122	-0.108
Mof_C 	C 	0.58694	0.2343	0.08694	0.031
Mof_H 	H 	0.5788	0.2132	0.0788	0.034
Mof_C 	C 	0.6269	0.201	0.1269	0.42
Mof_C 	C 	0.62685	0.3304	0.12685	-0.131
Mof_H 	H 	0.6391	0.06062	0.1391	0.17
Mof_O 	O 	0.6009	0.087	0.1009	-0.081
Mof_O 	O 	0.03635	0.2631	0.96365	-0.458
Mof_O 	O 	0.03608	0.2055	0.96392	-0.468
Mof_O 	O 	0.15001	0.29515	0.84999	-0.535
Mof_O 	O 	0.11536	0.32516	0.88464	-0.482
Mof_O 	O 	0.1226	0.4288	0.8774	-0.533
Mof_C 	C 	0.0467	0.2338	0.9533	0.381
Mof_C 	C 	0.07412	0.2353	0.92588	-0.097
Mof_C 	C 	0.08625	0.2037	0.91375	-0.049
Mof_H 	H 	0.0774	0.1832	0.9226	0.054
Mof_C 	C 	0.11256	0.2026	0.88744	0.032
Mof_C 	C 	0.12455	0.2338	0.87545	-0.042
Mof_H 	H 	0.1415	0.2341	0.8585	0.035
Mof_C 	C 	0.1122	0.2644	0.8878	-0.106
Mof_C 	C 	0.08694	0.2657	0.91306	0.03
Mof_H 	H 	0.0788	0.2868	0.9212	0.036
Mof_C 	C 	0.1269	0.299	0.8731	0.42
Mof_C 	C 	0.12685	0.1696	0.87315	-0.133
Mof_H 	H 	0.1391	0.43938	0.8609	0.173
Mof_O 	O 	0.1009	0.413	0.8991	-0.08
Mof_O 	O 	0.03635	0.7631	0.46365	-0.466
Mof_O 	O 	0.03608	0.7055	0.46392	-0.476
Mof_O 	O 	0.15001	0.79515	0.34999	-0.535
Mof_O 	O 	0.11536	0.82516	0.38464	-0.483
Mof_O 	O 	0.1226	0.9288	0.3774	-0.534
Mof_C 	C 	0.0467	0.7338	0.4533	0.382
Mof_C 	C 	0.07412	0.7353	0.42588	-0.1
Mof_C 	C 	0.08625	0.7037	0.41375	-0.047
Mof_H 	H 	0.0774	0.6832	0.4226	0.052
Mof_C 	C 	0.11256	0.7026	0.38744	0.03
Mof_C 	C 	0.12455	0.7338	0.37545	-0.041
Mof_H 	H 	0.1415	0.7341	0.3585	0.034
Mof_C 	C 	0.1122	0.7644	0.3878	-0.108
Mof_C 	C 	0.08694	0.7657	0.41306	0.031
Mof_H 	H 	0.0788	0.7868	0.4212	0.034
Mof_C 	C 	0.1269	0.799	0.3731	0.42
Mof_C 	C 	0.12685	0.6696	0.37315	-0.131
Mof_H 	H 	0.1391	0.93938	0.3609	0.176
Mof_O 	O 	0.1009	0.913	0.3991	-0.079
Mof_O 	O 	0.53635	0.2631	0.46365	-0.462
Mof_O 	O 	0.53608	0.2055	0.46392	-0.472
Mof_O 	O 	0.65001	0.29515	0.34999	-0.535
Mof_O 	O 	0.61536	0.32516	0.38464	-0.482
Mof_O 	O 	0.6226	0.4288	0.3774	-0.533
Mof_C 	C 	0.5467	0.2338	0.4533	0.382
Mof_C 	C 	0.57412	0.2353	0.42588	-0.098
Mof_C 	C 	0.58625	0.2037	0.41375	-0.048
Mof_H 	H 	0.5774	0.1832	0.4226	0.053
Mof_C 	C 	0.61256	0.2026	0.38744	0.031
Mof_C 	C 	0.62455	0.2338	0.37545	-0.042
Mof_H 	H 	0.6415	0.2341	0.3585	0.035
Mof_C 	C 	0.6122	0.2644	0.3878	-0.106
Mof_C 	C 	0.58694	0.2657	0.41306	0.031
Mof_H 	H 	0.5788	0.2868	0.4212	0.036
Mof_C 	C 	0.6269	0.299	0.3731	0.42
Mof_C 	C 	0.62685	0.1696	0.37315	-0.132
Mof_H 	H 	0.6391	0.43938	0.3609	0.173
Mof_O 	O 	0.6009	0.413	0.3991	-0.08
Mof_O 	O 	0.53635	0.7631	0.96365	-0.453
Mof_O 	O 	0.53608	0.7055	0.96392	-0.463
Mof_O 	O 	0.65001	0.79515	0.84999	-0.534
Mof_O 	O 	0.61536	0.82516	0.88464	-0.482
Mof_O 	O 	0.6226	0.9288	0.8774	-0.535
Mof_C 	C 	0.5467	0.7338	0.9533	0.38
Mof_C 	C 	0.57412	0.7353	0.92588	-0.094
Mof_C 	C 	0.58625	0.7037	0.91375	-0.05
Mof_H 	H 	0.5774	0.6832	0.9226	0.056
Mof_C 	C 	0.61256	0.7026	0.88744	0.034
Mof_C 	C 	0.62455	0.7338	0.87545	-0.044
Mof_H 	H 	0.6415	0.7341	0.8585	0.035
Mof_C 	C 	0.6122	0.7644	0.8878	-0.104
Mof_C 	C 	0.58694	0.7657	0.91306	0.029
Mof_H 	H 	0.5788	0.7868	0.9212	0.038
Mof_C 	C 	0.6269	0.799	0.8731	0.42
Mof_C 	C 	0.62685	0.6696	0.87315	-0.135
Mof_H 	H 	0.6391	0.93938	0.8609	0.177
Mof_O 	O 	0.6009	0.913	0.8991	-0.079
Mof_O 	O 	0.96365	0.7369	0.96365	-0.445
Mof_O 	O 	0.96392	0.7945	0.96392	-0.454
Mof_O 	O 	0.84999	0.70485	0.84999	-0.534
Mof_O 	O 	0.88464	0.67484	0.88464	-0.481
Mof_O 	O 	0.8774	0.5712	0.8774	-0.533
Mof_C 	C 	0.9533	0.7662	0.9533	0.378
Mof_C 	C 	0.92588	0.7647	0.92588	-0.09
Mof_C 	C 	0.91375	0.7963	0.91375	-0.053
Mof_H 	H 	0.9226	0.8168	0.9226	0.059
Mof_C 	C 	0.88744	0.7974	0.88744	0.037
Mof_C 	C 	0.87545	0.7662	0.87545	-0.046
Mof_H 	H 	0.8585	0.7659	0.8585	0.036
Mof_C 	C 	0.8878	0.7356	0.8878	-0.102
Mof_C 	C 	0.91306	0.7343	0.91306	0.027
Mof_H 	H 	0.9212	0.7132	0.9212	0.04
Mof_C 	C 	0.8731	0.701	0.8731	0.42
Mof_C 	C 	0.87315	0.8304	0.87315	-0.138
Mof_H 	H 	0.8609	0.56062	0.8609	0.174
Mof_O 	O 	0.8991	0.587	0.8991	-0.08
Mof_O 	O 	0.96365	0.2369	0.46365	-0.454
Mof_O 	O 	0.96392	0.2945	0.46392	-0.463
Mof_O 	O 	0.84999	0.20485	0.34999	-0.534
Mof_O 	O 	0.88464	0.17484	0.38464	-0.481
Mof_O 	O 	0.8774	0.0712	0.3774	-0.532
Mof_C 	C 	0.9533	0.2662	0.4533	0.38
Mof_C 	C 	0.92588	0.2647	0.42588	-0.094
Mof_C 	C 	0.91375	0.2963	0.41375	-0.05
Mof_H 	H 	0.9226	0.3168	0.4226	0.056
Mof_C 	C 	0.88744	0.2974	0.38744	0.034
Mof_C 	C 	0.87545	0.2662	0.37545	-0.044
Mof_H 	H 	0.8585	0.2659	0.3585	0.035
Mof_C 	C 	0.8878	0.2356	0.3878	-0.104
Mof_C 	C 	0.91306	0.2343	0.41306	0.029
Mof_H 	H 	0.9212	0.2132	0.4212	0.038
Mof_C 	C 	0.8731	0.201	0.3731	0.42
Mof_C 	C 	0.87315	0.3304	0.37315	-0.135
Mof_H 	H 	0.8609	0.06062	0.3609	0.17
Mof_O 	O 	0.8991	0.087	0.3991	-0.081
Mof_O 	O 	0.46365	0.7369	0.46365	-0.462
Mof_O 	O 	0.46392	0.7945	0.46392	-0.471
Mof_O 	O 	0.34999	0.70485	0.34999	-0.535
Mof_O 	O 	0.38464	0.67484	0.38464	-0.482
Mof_O 	O 	0.3774	0.5712	0.3774	-0.533
Mof_C 	C 	0.4533	0.7662	0.4533	0.382
Mof_C 	C 	0.42588	0.7647	0.42588	-0.097
Mof_C 	C 	0.41375	0.7963	0.41375	-0.049
Mof_H 	H 	0.4226	0.8168	0.4226	0.054
Mof_C 	C 	0.38744	0.7974	0.38744	0.032
Mof_C 	C 	0.37545	0.7662	0.37545	-0.043
Mof_H 	H 	0.3585	0.7659	0.3585	0.035
Mof_C 	C 	0.3878	0.7356	0.3878	-0.106
Mof_C 	C 	0.41306	0.7343	0.41306	0.03
Mof_H 	H 	0.4212	0.7132	0.4212	0.036
Mof_C 	C 	0.3731	0.701	0.3731	0.42
Mof_C 	C 	0.37315	0.8304	0.37315	-0.134
Mof_H 	H 	0.3609	0.56062	0.3609	0.173
Mof_O 	O 	0.3991	0.587	0.3991	-0.08
Mof_O 	O 	0.46365	0.2369	0.96365	-0.454
Mof_O 	O 	0.46392	0.2945	0.96392	-0.463
Mof_O 	O 	0.34999	0.20485	0.84999	-0.534
Mof_O 	O 	0.38464	0.17484	0.88464	-0.481
Mof_O 	O 	0.3774	0.0712	0.8774	-0.532
Mof_C 	C 	0.4533	0.2662	0.9533	0.38
Mof_C 	C 	0.42588	0.2647	0.92588	-0.094
Mof_C 	C 	0.41375	0.2963	0.91375	-0.05
Mof_H 	H 	0.4226	0.3168	0.9226	0.056
Mof_C 	C 	0.38744	0.2974	0.88744	0.034
Mof_C 	C 	0.37545	0.2662	0.87545	-0.044
Mof_H 	H 	0.3585	0.2659	0.8585	0.035
Mof_C 	C 	0.3878	0.2356	0.8878	-0.104
Mof_C 	C 	0.41306	0.2343	0.91306	0.029
Mof_H 	H 	0.4212	0.2132	0.9212	0.038
Mof_C 	C 	0.3731	0.201	0.8731	0.42
Mof_C 	C 	0.37315	0.3304	0.87315	-0.135
Mof_H 	H 	0.3609	0.06062	0.8609	0.17
Mof_O 	O 	0.3991	0.087	0.8991	-0.081
Mof_O 	O 	0.03635	0.96365	0.2631	-0.458
Mof_O 	O 	0.03608	0.96392	0.2055	-0.468
Mof_O 	O 	0.15001	0.84999	0.29515	-0.535
Mof_O 	O 	0.11536	0.88464	0.32516	-0.482
Mof_O 	O 	0.1226	0.8774	0.4288	-0.533
Mof_C 	C 	0.0467	0.9533	0.2338	0.381
Mof_C 	C 	0.07412	0.92588	0.2353	-0.097
Mof_C 	C 	0.08625	0.91375	0.2037	-0.049
Mof_H 	H 	0.0774	0.9226	0.1832	0.054
Mof_C 	C 	0.11256	0.88744	0.2026	0.032
Mof_C 	C 	0.12455	0.87545	0.2338	-0.042
Mof_H 	H 	0.1415	0.8585	0.2341	0.035
Mof_C 	C 	0.1122	0.8878	0.2644	-0.106
Mof_C 	C 	0.08694	0.91306	0.2657	0.03
Mof_H 	H 	0.0788	0.9212	0.2868	0.036
Mof_C 	C 	0.1269	0.8731	0.299	0.42
Mof_C 	C 	0.12685	0.87315	0.1696	-0.133
Mof_H 	H 	0.1391	0.8609	0.43938	0.173
Mof_O 	O 	0.1009	0.8991	0.413	-0.08
Mof_O 	O 	0.03635	0.46365	0.7631	-0.466
Mof_O 	O 	0.03608	0.46392	0.7055	-0.476
Mof_O 	O 	0.15001	0.34999	0.79515	-0.535
Mof_O 	O 	0.11536	0.38464	0.82516	-0.483
Mof_O 	O 	0.1226	0.3774	0.9288	-0.534
Mof_C 	C 	0.0467	0.4533	0.7338	0.382
Mof_C 	C 	0.07412	0.42588	0.7353	-0.1
Mof_C 	C 	0.08625	0.41375	0.7037	-0.047
Mof_H 	H 	0.0774	0.4226	0.6832	0.052
Mof_C 	C 	0.11256	0.38744	0.7026	0.03
Mof_C 	C 	0.12455	0.37545	0.7338	-0.041
Mof_H 	H 	0.1415	0.3585	0.7341	0.034
Mof_C 	C 	0.1122	0.3878	0.7644	-0.108
Mof_C 	C 	0.08694	0.41306	0.7657	0.031
Mof_H 	H 	0.0788	0.4212	0.7868	0.034
Mof_C 	C 	0.1269	0.3731	0.799	0.42
Mof_C 	C 	0.12685	0.37315	0.6696	-0.131
Mof_H 	H 	0.1391	0.3609	0.93938	0.176
Mof_O 	O 	0.1009	0.3991	0.913	-0.079
Mof_O 	O 	0.53635	0.96365	0.7631	-0.453
Mof_O 	O 	0.53608	0.96392	0.7055	-0.463
Mof_O 	O 	0.65001	0.84999	0.79515	-0.534
Mof_O 	O 	0.61536	0.88464	0.82516	-0.482
Mof_O 	O 	0.6226	0.8774	0.9288	-0.535
Mof_C 	C 	0.5467	0.9533	0.7338	0.38
Mof_C 	C 	0.57412	0.92588	0.7353	-0.094
Mof_C 	C 	0.58625	0.91375	0.7037	-0.05
Mof_H 	H 	0.5774	0.9226	0.6832	0.056
Mof_C 	C 	0.61256	0.88744	0.7026	0.034
Mof_C 	C 	0.62455	0.87545	0.7338	-0.044
Mof_H 	H 	0.6415	0.8585	0.7341	0.035
Mof_C 	C 	0.6122	0.8878	0.7644	-0.104
Mof_C 	C 	0.58694	0.91306	0.7657	0.029
Mof_H 	H 	0.5788	0.9212	0.7868	0.038
Mof_C 	C 	0.6269	0.8731	0.799	0.42
Mof_C 	C 	0.62685	0.87315	0.6696	-0.135
Mof_H 	H 	0.6391	0.8609	0.93938	0.177
Mof_O 	O 	0.6009	0.8991	0.913	-0.079
Mof_O 	O 	0.53635	0.46365	0.2631	-0.462
Mof_O 	O 	0.53608	0.46392	0.2055	-0.472
Mof_O 	O 	0.65001	0.34999	0.29515	-0.535
Mof_O 	O 	0.61536	0.38464	0.32516	-0.482
Mof_O 	O 	0.6226	0.3774	0.4288	-0.533
Mof_C 	C 	0.5467	0.4533	0.2338	0.382
Mof_C 	C 	0.57412	0.42588	0.2353	-0.098
Mof_C 	C 	0.58625	0.41375	0.2037	-0.048
Mof_H 	H 	0.5774	0.4226	0.1832	0.053
Mof_C 	C 	0.61256	0.38744	0.2026	0.031
Mof_C 	C 	0.62455	0.37545	0.2338	-0.042
Mof_H 	H 	0.6415	0.3585	0.2341	0.035
Mof_C 	C 	0.6122	0.3878	0.2644	-0.106
Mof_C 	C 	0.58694	0.41306	0.2657	0.031
Mof_H 	H 	0.5788	0.4212	0.2868	0.036
Mof_C 	C 	0.6269	0.3731	0.299	0.42
Mof_C 	C 	0.62685	0.37315	0.1696	-0.132
Mof_H 	H 	0.6391	0.3609	0.43938	0.173
Mof_O 	O 	0.6009	0.3991	0.413	-0.08
Mof_O 	O 	0.03635	0.03635	0.7369	-0.47
Mof_O 	O 	0.03608	0.03608	0.7945	-0.48
Mof_O 	O 	0.15001	0.15001	0.70485	-0.535
Mof_O 	O 	0.11536	0.11536	0.67484	-0.483
Mof_O 	O 	0.1226	0.1226	0.5712	-0.532
Mof_C 	C 	0.0467	0.0467	0.7662	0.382
Mof_C 	C 	0.07412	0.07412	0.7647	-0.103
Mof_C 	C 	0.08625	0.08625	0.7963	-0.047
Mof_H 	H 	0.0774	0.0774	0.8168	0.051
Mof_C 	C 	0.11256	0.11256	0.7974	0.029
Mof_C 	C 	0.12455	0.12455	0.7662	-0.041
Mof_H 	H 	0.1415	0.1415	0.7659	0.034
Mof_C 	C 	0.1122	0.1122	0.7356	-0.109
Mof_C 	C 	0.08694	0.08694	0.7343	0.032
Mof_H 	H 	0.0788	0.0788	0.7132	0.033
Mof_C 	C 	0.1269	0.1269	0.701	0.42
Mof_C 	C 	0.12685	0.12685	0.8304	-0.131
Mof_H 	H 	0.1391	0.1391	0.56062	0.172
Mof_O 	O 	0.1009	0.1009	0.587	-0.08
Mof_O 	O 	0.03635	0.53635	0.2369	-0.466
Mof_O 	O 	0.03608	0.53608	0.2945	-0.476
Mof_O 	O 	0.15001	0.65001	0.20485	-0.535
Mof_O 	O 	0.11536	0.61536	0.17484	-0.483
Mof_O 	O 	0.1226	0.6226	0.0712	-0.531
Mof_C 	C 	0.0467	0.5467	0.2662	0.382
Mof_C 	C 	0.07412	0.57412	0.2647	-0.1
Mof_C 	C 	0.08625	0.58625	0.2963	-0.047
Mof_H 	H 	0.0774	0.5774	0.3168	0.052
Mof_C 	C 	0.11256	0.61256	0.2974	0.03
Mof_C 	C 	0.12455	0.62455	0.2662	-0.041
Mof_H 	H 	0.1415	0.6415	0.2659	0.034
Mof_C 	C 	0.1122	0.6122	0.2356	-0.108
Mof_C 	C 	0.08694	0.58694	0.2343	0.031
Mof_H 	H 	0.0788	0.5788	0.2132	0.034
Mof_C 	C 	0.1269	0.6269	0.201	0.42
Mof_C 	C 	0.12685	0.62685	0.3304	-0.131
Mof_H 	H 	0.1391	0.6391	0.06062	0.17
Mof_O 	O 	0.1009	0.6009	0.087	-0.081
Mof_O 	O 	0.53635	0.03635	0.2369	-0.466
Mof_O 	O 	0.53608	0.03608	0.2945	-0.476
Mof_O 	O 	0.65001	0.15001	0.20485	-0.535
Mof_O 	O 	0.61536	0.11536	0.17484	-0.483
Mof_O 	O 	0.6226	0.1226	0.0712	-0.531
Mof_C 	C 	0.5467	0.0467	0.2662	0.382
Mof_C 	C 	0.57412	0.07412	0.2647	-0.1
Mof_C 	C 	0.58625	0.08625	0.2963	-0.047
Mof_H 	H 	0.5774	0.0774	0.3168	0.052
Mof_C 	C 	0.61256	0.11256	0.2974	0.03
Mof_C 	C 	0.62455	0.12455	0.2662	-0.041
Mof_H 	H 	0.6415	0.1415	0.2659	0.034
Mof_C 	C 	0.6122	0.1122	0.2356	-0.108
Mof_C 	C 	0.58694	0.08694	0.2343	0.031
Mof_H 	H 	0.5788	0.0788	0.2132	0.034
Mof_C 	C 	0.6269	0.1269	0.201	0.42
Mof_C 	C 	0.62685	0.12685	0.3304	-0.131
Mof_H 	H 	0.6391	0.1391	0.06062	0.17
Mof_O 	O 	0.6009	0.1009	0.087	-0.081
Mof_O 	O 	0.53635	0.53635	0.7369	-0.462
Mof_O 	O 	0.53608	0.53608	0.7945	-0.471
Mof_O 	O 	0.65001	0.65001	0.70485	-0.535
Mof_O 	O 	0.61536	0.61536	0.67484	-0.482
Mof_O 	O 	0.6226	0.6226	0.5712	-0.533
Mof_C 	C 	0.5467	0.5467	0.7662	0.382
Mof_C 	C 	0.57412	0.57412	0.7647	-0.097
Mof_C 	C 	0.58625	0.58625	0.7963	-0.049
Mof_H 	H 	0.5774	0.5774	0.8168	0.054
Mof_C 	C 	0.61256	0.61256	0.7974	0.032
Mof_C 	C 	0.62455	0.62455	0.7662	-0.043
Mof_H 	H 	0.6415	0.6415	0.7659	0.035
Mof_C 	C 	0.6122	0.6122	0.7356	-0.106
Mof_C 	C 	0.58694	0.58694	0.7343	0.03
Mof_H 	H 	0.5788	0.5788	0.7132	0.036
Mof_C 	C 	0.6269	0.6269	0.701	0.42
Mof_C 	C 	0.62685	0.62685	0.8304	-0.134
Mof_H 	H 	0.6391	0.6391	0.56062	0.173
Mof_O 	O 	0.6009	0.6009	0.587	-0.08
Mof_O 	O 	0.96365	0.03635	0.2631	-0.458
Mof_O 	O 	0.96392	0.03608	0.2055	-0.468
Mof_O 	O 	0.84999	0.15001	0.29515	-0.535
Mof_O 	O 	0.88464	0.11536	0.32516	-0.482
Mof_O 	O 	0.8774	0.1226	0.4288	-0.533
Mof_C 	C 	0.9533	0.0467	0.2338	0.381
Mof_C 	C 	0.92588	0.07412	0.2353	-0.097
Mof_C 	C 	0.91375	0.08625	0.2037	-0.049
Mof_H 	H 	0.9226	0.0774	0.1832	0.054
Mof_C 	C 	0.88744	0.11256	0.2026	0.032
Mof_C 	C 	0.87545	0.12455	0.2338	-0.042
Mof_H 	H 	0.8585	0.1415	0.2341	0.035
Mof_C 	C 	0.8878	0.1122	0.2644	-0.106
Mof_C 	C 	0.91306	0.08694	0.2657	0.03
Mof_H 	H 	0.9212	0.0788	0.2868	0.036
Mof_C 	C 	0.8731	0.1269	0.299	0.42
Mof_C 	C 	0.87315	0.12685	0.1696	-0.133
Mof_H 	H 	0.8609	0.1391	0.43938	0.173
Mof_O 	O 	0.8991	0.1009	0.413	-0.08
Mof_O 	O 	0.96365	0.53635	0.7631	-0.453
Mof_O 	O 	0.96392	0.53608	0.7055	-0.463
Mof_O 	O 	0.84999	0.65001	0.79515	-0.534
Mof_O 	O 	0.88464	0.61536	0.82516	-0.482
Mof_O 	O 	0.8774	0.6226	0.9288	-0.535
Mof_C 	C 	0.9533	0.5467	0.7338	0.38
Mof_C 	C 	0.92588	0.57412	0.7353	-0.094
Mof_C 	C 	0.91375	0.58625	0.7037	-0.05
Mof_H 	H 	0.9226	0.5774	0.6832	0.056
Mof_C 	C 	0.88744	0.61256	0.7026	0.034
Mof_C 	C 	0.87545	0.62455	0.7338	-0.044
Mof_H 	H 	0.8585	0.6415	0.7341	0.035
Mof_C 	C 	0.8878	0.6122	0.7644	-0.104
Mof_C 	C 	0.91306	0.58694	0.7657	0.029
Mof_H 	H 	0.9212	0.5788	0.7868	0.038
Mof_C 	C 	0.8731	0.6269	0.799	0.42
Mof_C 	C 	0.87315	0.62685	0.6696	-0.135
Mof_H 	H 	0.8609	0.6391	0.93938	0.177
Mof_O 	O 	0.8991	0.6009	0.913	-0.079
Mof_O 	O 	0.46365	0.03635	0.7631	-0.466
Mof_O 	O 	0.46392	0.03608	0.7055	-0.476
Mof_O 	O 	0.34999	0.15001	0.79515	-0.535
Mof_O 	O 	0.38464	0.11536	0.82516	-0.483
Mof_O 	O 	0.3774	0.1226	0.9288	-0.534
Mof_C 	C 	0.4533	0.0467	0.7338	0.382
Mof_C 	C 	0.42588	0.07412	0.7353	-0.1
Mof_C 	C 	0.41375	0.08625	0.7037	-0.047
Mof_H 	H 	0.4226	0.0774	0.6832	0.052
Mof_C 	C 	0.38744	0.11256	0.7026	0.03
Mof_C 	C 	0.37545	0.12455	0.7338	-0.041
Mof_H 	H 	0.3585	0.1415	0.7341	0.034
Mof_C 	C 	0.3878	0.1122	0.7644	-0.108
Mof_C 	C 	0.41306	0.08694	0.7657	0.031
Mof_H 	H 	0.4212	0.0788	0.7868	0.034
Mof_C 	C 	0.3731	0.1269	0.799	0.42
Mof_C 	C 	0.37315	0.12685	0.6696	-0.131
Mof_H 	H 	0.3609	0.1391	0.93938	0.176
Mof_O 	O 	0.3991	0.1009	0.913	-0.079
Mof_O 	O 	0.46365	0.53635	0.2631	-0.462
Mof_O 	O 	0.46392	0.53608	0.2055	-0.472
Mof_O 	O 	0.34999	0.65001	0.29515	-0.535
Mof_O 	O 	0.38464	0.61536	0.32516	-0.482
Mof_O 	O 	0.3774	0.6226	0.4288	-0.533
Mof_C 	C 	0.4533	0.5467	0.2338	0.382
Mof_C 	C 	0.42588	0.57412	0.2353	-0.098
Mof_C 	C 	0.41375	0.58625	0.2037	-0.048
Mof_H 	H 	0.4226	0.5774	0.1832	0.053
Mof_C 	C 	0.38744	0.61256	0.2026	0.031
Mof_C 	C 	0.37545	0.62455	0.2338	-0.042
Mof_H 	H 	0.3585	0.6415	0.2341	0.035
Mof_C 	C 	0.3878	0.6122	0.2644	-0.106
Mof_C 	C 	0.41306	0.58694	0.2657	0.031
Mof_H 	H 	0.4212	0.5788	0.2868	0.036
Mof_C 	C 	0.3731	0.6269	0.299	0.42
Mof_C 	C 	0.37315	0.62685	0.1696	-0.132
Mof_H 	H 	0.3609	0.6391	0.43938	0.173
Mof_O 	O 	0.3991	0.6009	0.413	-0.08
Mof_O 	O 	0.96365	0.96365	0.7369	-0.445
Mof_O 	O 	0.96392	0.96392	0.7945	-0.454
Mof_O 	O 	0.84999	0.84999	0.70485	-0.534
Mof_O 	O 	0.88464	0.88464	0.67484	-0.481
Mof_O 	O 	0.8774	0.8774	0.5712	-0.533
Mof_C 	C 	0.9533	0.9533	0.7662	0.378
Mof_C 	C 	0.92588	0.92588	0.7647	-0.09
Mof_C 	C 	0.91375	0.91375	0.7963	-0.053
Mof_H 	H 	0.9226	0.9226	0.8168	0.059
Mof_C 	C 	0.88744	0.88744	0.7974	0.037
Mof_C 	C 	0.87545	0.87545	0.7662	-0.046
Mof_H 	H 	0.8585	0.8585	0.7659	0.036
Mof_C 	C 	0.8878	0.8878	0.7356	-0.102
Mof_C 	C 	0.91306	0.91306	0.7343	0.027
Mof_H 	H 	0.9212	0.9212	0.7132	0.04
Mof_C 	C 	0.8731	0.8731	0.701	0.42
Mof_C 	C 	0.87315	0.87315	0.8304	-0.138
Mof_H 	H 	0.8609	0.8609	0.56062	0.174
Mof_O 	O 	0.8991	0.8991	0.587	-0.08
Mof_O 	O 	0.96365	0.46365	0.2369	-0.454
Mof_O 	O 	0.96392	0.46392	0.2945	-0.463
Mof_O 	O 	0.84999	0.34999	0.20485	-0.534
Mof_O 	O 	0.88464	0.38464	0.17484	-0.481
Mof_O 	O 	0.8774	0.3774	0.0712	-0.532
Mof_C 	C 	0.9533	0.4533	0.2662	0.38
Mof_C 	C 	0.92588	0.42588	0.2647	-0.094
Mof_C 	C 	0.91375	0.41375	0.2963	-0.05
Mof_H 	H 	0.9226	0.4226	0.3168	0.056
Mof_C 	C 	0.88744	0.38744	0.2974	0.034
Mof_C 	C 	0.87545	0.37545	0.2662	-0.044
Mof_H 	H 	0.8585	0.3585	0.2659	0.035
Mof_C 	C 	0.8878	0.3878	0.2356	-0.104
Mof_C 	C 	0.91306	0.41306	0.2343	0.029
Mof_H 	H 	0.9212	0.4212	0.2132	0.038
Mof_C 	C 	0.8731	0.3731	0.201	0.42
Mof_C 	C 	0.87315	0.37315	0.3304	-0.135
Mof_H 	H 	0.8609	0.3609	0.06062	0.17
Mof_O 	O 	0.8991	0.3991	0.087	-0.081
Mof_O 	O 	0.46365	0.96365	0.2369	-0.454
Mof_O 	O 	0.46392	0.96392	0.2945	-0.463
Mof_O 	O 	0.34999	0.84999	0.20485	-0.534
Mof_O 	O 	0.38464	0.88464	0.17484	-0.481
Mof_O 	O 	0.3774	0.8774	0.0712	-0.532
Mof_C 	C 	0.4533	0.9533	0.2662	0.38
Mof_C 	C 	0.42588	0.92588	0.2647	-0.094
Mof_C 	C 	0.41375	0.91375	0.2963	-0.05
Mof_H 	H 	0.4226	0.9226	0.3168	0.056
Mof_C 	C 	0.38744	0.88744	0.2974	0.034
Mof_C 	C 	0.37545	0.87545	0.2662	-0.044
Mof_H 	H 	0.3585	0.8585	0.2659	0.035
Mof_C 	C 	0.3878	0.8878	0.2356	-0.104
Mof_C 	C 	0.41306	0.91306	0.2343	0.029
Mof_H 	H 	0.4212	0.9212	0.2132	0.038
Mof_C 	C 	0.3731	0.8731	0.201	0.42
Mof_C 	C 	0.37315	0.87315	0.3304	-0.135
Mof_H 	H 	0.3609	0.8609	0.06062	0.17
Mof_O 	O 	0.3991	0.8991	0.087	-0.081
Mof_O 	O 	0.46365	0.46365	0.7369	-0.462
Mof_O 	O 	0.46392	0.46392	0.7945	-0.471
Mof_O 	O 	0.34999	0.34999	0.70485	-0.535
Mof_O 	O 	0.38464	0.38464	0.67484	-0.482
Mof_O 	O 	0.3774	0.3774	0.5712	-0.533
Mof_C 	C 	0.4533	0.4533	0.7662	0.382
Mof_C 	C 	0.42588	0.42588	0.7647	-0.097
Mof_C 	C 	0.41375	0.41375	0.7963	-0.049
Mof_H 	H 	0.4226	0.4226	0.8168	0.054
Mof_C 	C 	0.38744	0.38744	0.7974	0.032
Mof_C 	C 	0.37545	0.37545	0.7662	-0.043
Mof_H 	H 	0.3585	0.3585	0.7659	0.035
Mof_C 	C 	0.3878	0.3878	0.7356	-0.106
Mof_C 	C 	0.41306	0.41306	0.7343	0.03
Mof_H 	H 	0.4212	0.4212	0.7132	0.036
Mof_C 	C 	0.3731	0.3731	0.701	0.42
Mof_C 	C 	0.37315	0.37315	0.8304	-0.134
Mof_H 	H 	0.3609	0.3609	0.56062	0.173
Mof_O 	O 	0.3991	0.3991	0.587	-0.08
Mof_O 	O 	0.2631	0.03635	0.96365	-0.458
Mof_O 	O 	0.2055	0.03608	0.96392	-0.468
Mof_O 	O 	0.29515	0.15001	0.84999	-0.535
Mof_O 	O 	0.32516	0.11536	0.88464	-0.482
Mof_O 	O 	0.4288	0.1226	0.8774	-0.533
Mof_C 	C 	0.2338	0.0467	0.9533	0.381
Mof_C 	C 	0.2353	0.07412	0.92588	-0.097
Mof_C 	C 	0.2037	0.08625	0.91375	-0.049
Mof_H 	H 	0.1832	0.0774	0.9226	0.054
Mof_C 	C 	0.2026	0.11256	0.88744	0.032
Mof_C 	C 	0.2338	0.12455	0.87545	-0.042
Mof_H 	H 	0.2341	0.1415	0.8585	0.035
Mof_C 	C 	0.2644	0.1122	0.8878	-0.106
Mof_C 	C 	0.2657	0.08694	0.91306	0.03
Mof_H 	H 	0.2868	0.0788	0.9212	0.036
Mof_C 	C 	0.299	0.1269	0.8731	0.42
Mof_C 	C 	0.1696	0.12685	0.87315	-0.133
Mof_H 	H 	0.43938	0.1391	0.8609	0.173
Mof_O 	O 	0.413	0.1009	0.8991	-0.08
Mof_O 	O 	0.2631	0.53635	0.46365	-0.462
Mof_O 	O 	0.2055	0.53608	0.46392	-0.472
Mof_O 	O 	0.29515	0.65001	0.34999	-0.535
Mof_O 	O 	0.32516	0.61536	0.38464	-0.482
Mof_O 	O 	0.4288	0.6226	0.3774	-0.533
Mof_C 	C 	0.2338	0.5467	0.4533	0.382
Mof_C 	C 	0.2353	0.57412	0.42588	-0.098
Mof_C 	C 	0.2037	0.58625	0.41375	-0.048
Mof_H 	H 	0.1832	0.5774	0.4226	0.053
Mof_C 	C 	0.2026	0.61256	0.38744	0.031
Mof_C 	C 	0.2338	0.62455	0.37545	-0.042
Mof_H 	H 	0.2341	0.6415	0.3585	0.035
Mof_C 	C 	0.2644	0.6122	0.3878	-0.106
Mof_C 	C 	0.2657	0.58694	0.41306	0.031
Mof_H 	H 	0.2868	0.5788	0.4212	0.036
Mof_C 	C 	0.299	0.6269	0.3731	0.42
Mof_C 	C 	0.1696	0.62685	0.37315	-0.132
Mof_H 	H 	0.43938	0.6391	0.3609	0.173
Mof_O 	O 	0.413	0.6009	0.3991	-0.08
Mof_O 	O 	0.7631	0.03635	0.46365	-0.466
Mof_O 	O 	0.7055	0.03608	0.46392	-0.476
Mof_O 	O 	0.79515	0.15001	0.34999	-0.535
Mof_O 	O 	0.82516	0.11536	0.38464	-0.483
Mof_O 	O 	0.9288	0.1226	0.3774	-0.534
Mof_C 	C 	0.7338	0.0467	0.4533	0.382
Mof_C 	C 	0.7353	0.07412	0.42588	-0.1
Mof_C 	C 	0.7037	0.08625	0.41375	-0.047
Mof_H 	H 	0.6832	0.0774	0.4226	0.052
Mof_C 	C 	0.7026	0.11256	0.38744	0.03
Mof_C 	C 	0.7338	0.12455	0.37545	-0.041
Mof_H 	H 	0.7341	0.1415	0.3585	0.034
Mof_C 	C 	0.7644	0.1122	0.3878	-0.108
Mof_C 	C 	0.7657	0.08694	0.41306	0.031
Mof_H 	H 	0.7868	0.0788	0.4212	0.034
Mof_C 	C 	0.799	0.1269	0.3731	0.42
Mof_C 	C 	0.6696	0.12685	0.37315	-0.131
Mof_H 	H 	0.93938	0.1391	0.3609	0.176
Mof_O 	O 	0.913	0.1009	0.3991	-0.079
Mof_O 	O 	0.7631	0.53635	0.96365	-0.453
Mof_O 	O 	0.7055	0.53608	0.96392	-0.463
Mof_O 	O 	0.79515	0.65001	0.84999	-0.534
Mof_O 	O 	0.82516	0.61536	0.88464	-0.482
Mof_O 	O 	0.9288	0.6226	0.8774	-0.535
Mof_C 	C 	0.7338	0.5467	0.9533	0.38
Mof_C 	C 	0.7353	0.57412	0.92588	-0.094
Mof_C 	C 	0.7037	0.58625	0.91375	-0.05
Mof_H 	H 	0.6832	0.5774	0.9226	0.056
Mof_C 	C 	0.7026	0.61256	0.88744	0.034
Mof_C 	C 	0.7338	0.62455	0.87545	-0.044
Mof_H 	H 	0.7341	0.6415	0.8585	0.035
Mof_C 	C 	0.7644	0.6122	0.8878	-0.104
Mof_C 	C 	0.7657	0.58694	0.91306	0.029
Mof_H 	H 	0.7868	0.5788	0.9212	0.038
Mof_C 	C 	0.799	0.6269	0.8731	0.42
Mof_C 	C 	0.6696	0.62685	0.87315	-0.135
Mof_H 	H 	0.93938	0.6391	0.8609	0.177
Mof_O 	O 	0.913	0.6009	0.8991	-0.079
Mof_O 	O 	0.7369	0.03635	0.03635	-0.47
Mof_O 	O 	0.7945	0.03608	0.03608	-0.48
Mof_O 	O 	0.70485	0.15001	0.15001	-0.535
Mof_O 	O 	0.67484	0.11536	0.11536	-0.483
Mof_O 	O 	0.5712	0.1226	0.1226	-0.532
Mof_C 	C 	0.7662	0.0467	0.0467	0.382
Mof_C 	C 	0.7647	0.07412	0.07412	-0.103
Mof_C 	C 	0.7963	0.08625	0.08625	-0.047
Mof_H 	H 	0.8168	0.0774	0.0774	0.051
Mof_C 	C 	0.7974	0.11256	0.11256	0.029
Mof_C 	C 	0.7662	0.12455	0.12455	-0.041
Mof_H 	H 	0.7659	0.1415	0.1415	0.034
Mof_C 	C 	0.7356	0.1122	0.1122	-0.109
Mof_C 	C 	0.7343	0.08694	0.08694	0.032
Mof_H 	H 	0.7132	0.0788	0.0788	0.033
Mof_C 	C 	0.701	0.1269	0.1269	0.42
Mof_C 	C 	0.8304	0.12685	0.12685	-0.131
Mof_H 	H 	0.56062	0.1391	0.1391	0.172
Mof_O 	O 	0.587	0.1009	0.1009	-0.08
Mof_O 	O 	0.7369	0.53635	0.53635	-0.462
Mof_O 	O 	0.7945	0.53608	0.53608	-0.471
Mof_O 	O 	0.70485	0.65001	0.65001	-0.535
Mof_O 	O 	0.67484	0.61536	0.61536	-0.482
Mof_O 	O 	0.5712	0.6226	0.6226	-0.533
Mof_C 	C 	0.7662	0.5467	0.5467	0.382
Mof_C 	C 	0.7647	0.57412	0.57412	-0.097
Mof_C 	C 	0.7963	0.58625	0.58625	-0.049
Mof_H 	H 	0.8168	0.5774	0.5774	0.054
Mof_C 	C 	0.7974	0.61256	0.61256	0.032
Mof_C 	C 	0.7662	0.62455	0.62455	-0.043
Mof_H 	H 	0.7659	0.6415	0.6415	0.035
Mof_C 	C 	0.7356	0.6122	0.6122	-0.106
Mof_C 	C 	0.7343	0.58694	0.58694	0.03
Mof_H 	H 	0.7132	0.5788	0.5788	0.036
Mof_C 	C 	0.701	0.6269	0.6269	0.42
Mof_C 	C 	0.8304	0.62685	0.62685	-0.134
Mof_H 	H 	0.56062	0.6391	0.6391	0.173
Mof_O 	O 	0.587	0.6009	0.6009	-0.08
Mof_O 	O 	0.2369	0.03635	0.53635	-0.466
Mof_O 	O 	0.2945	0.03608	0.53608	-0.476
Mof_O 	O 	0.20485	0.15001	0.65001	-0.535
Mof_O 	O 	0.17484	0.11536	0.61536	-0.483
Mof_O 	O 	0.0712	0.1226	0.6226	-0.531
Mof_C 	C 	0.2662	0.0467	0.5467	0.382
Mof_C 	C 	0.2647	0.07412	0.57412	-0.1
Mof_C 	C 	0.2963	0.08625	0.58625	-0.047
Mof_H 	H 	0.3168	0.0774	0.5774	0.052
Mof_C 	C 	0.2974	0.11256	0.61256	0.03
Mof_C 	C 	0.2662	0.12455	0.62455	-0.041
Mof_H 	H 	0.2659	0.1415	0.6415	0.034
Mof_C 	C 	0.2356	0.1122	0.6122	-0.108
Mof_C 	C 	0.2343	0.08694	0.58694	0.031
Mof_H 	H 	0.2132	0.0788	0.5788	0.034
Mof_C 	C 	0.201	0.1269	0.6269	0.42
Mof_C 	C 	0.3304	0.12685	0.62685	-0.131
Mof_H 	H 	0.06062	0.1391	0.6391	0.17
Mof_O 	O 	0.087	0.1009	0.6009	-0.081
Mof_O 	O 	0.2369	0.53635	0.03635	-0.466
Mof_O 	O 	0.2945	0.53608	0.03608	-0.476
Mof_O 	O 	0.20485	0.65001	0.15001	-0.535
Mof_O 	O 	0.17484	0.61536	0.11536	-0.483
Mof_O 	O 	0.0712	0.6226	0.1226	-0.531
Mof_C 	C 	0.2662	0.5467	0.0467	0.382
Mof_C 	C 	0.2647	0.57412	0.07412	-0.1
Mof_C 	C 	0.2963	0.58625	0.08625	-0.047
Mof_H 	H 	0.3168	0.5774	0.0774	0.052
Mof_C 	C 	0.2974	0.61256	0.11256	0.03
Mof_C 	C 	0.2662	0.62455	0.12455	-0.041
Mof_H 	H 	0.2659	0.6415	0.1415	0.034
Mof_C 	C 	0.2356	0.6122	0.1122	-0.108
Mof_C 	C 	0.2343	0.58694	0.08694	0.031
Mof_H 	H 	0.2132	0.5788	0.0788	0.034
Mof_C 	C 	0.201	0.6269	0.1269	0.42
Mof_C 	C 	0.3304	0.62685	0.12685	-0.131
Mof_H 	H 	0.06062	0.6391	0.1391	0.17
Mof_O 	O 	0.087	0.6009	0.1009	-0.081
Mof_O 	O 	0.2631	0.96365	0.03635	-0.458
Mof_O 	O 	0.2055	0.96392	0.03608	-0.468
Mof_O 	O 	0.29515	0.84999	0.15001	-0.535
Mof_O 	O 	0.32516	0.88464	0.11536	-0.482
Mof_O 	O 	0.4288	0.8774	0.1226	-0.533
Mof_C 	C 	0.2338	0.9533	0.0467	0.381
Mof_C 	C 	0.2353	0.92588	0.07412	-0.097
Mof_C 	C 	0.2037	0.91375	0.08625	-0.049
Mof_H 	H 	0.1832	0.9226	0.0774	0.054
Mof_C 	C 	0.2026	0.88744	0.11256	0.032
Mof_C 	C 	0.2338	0.87545	0.12455	-0.042
Mof_H 	H 	0.2341	0.8585	0.1415	0.035
Mof_C 	C 	0.2644	0.8878	0.1122	-0.106
Mof_C 	C 	0.2657	0.91306	0.08694	0.03
Mof_H 	H 	0.2868	0.9212	0.0788	0.036
Mof_C 	C 	0.299	0.8731	0.1269	0.42
Mof_C 	C 	0.1696	0.87315	0.12685	-0.133
Mof_H 	H 	0.43938	0.8609	0.1391	0.173
Mof_O 	O 	0.413	0.8991	0.1009	-0.08
Mof_O 	O 	0.2631	0.46365	0.53635	-0.462
Mof_O 	O 	0.2055	0.46392	0.53608	-0.472
Mof_O 	O 	0.29515	0.34999	0.65001	-0.535
Mof_O 	O 	0.32516	0.38464	0.61536	-0.482
Mof_O 	O 	0.4288	0.3774	0.6226	-0.533
Mof_C 	C 	0.2338	0.4533	0.5467	0.382
Mof_C 	C 	0.2353	0.42588	0.57412	-0.098
Mof_C 	C 	0.2037	0.41375	0.58625	-0.048
Mof_H 	H 	0.1832	0.4226	0.5774	0.053
Mof_C 	C 	0.2026	0.38744	0.61256	0.031
Mof_C 	C 	0.2338	0.37545	0.62455	-0.042
Mof_H 	H 	0.2341	0.3585	0.6415	0.035
Mof_C 	C 	0.2644	0.3878	0.6122	-0.106
Mof_C 	C 	0.2657	0.41306	0.58694	0.031
Mof_H 	H 	0.2868	0.4212	0.5788	0.036
Mof_C 	C 	0.299	0.3731	0.6269	0.42
Mof_C 	C 	0.1696	0.37315	0.62685	-0.132
Mof_H 	H 	0.43938	0.3609	0.6391	0.173
Mof_O 	O 	0.413	0.3991	0.6009	-0.08
Mof_O 	O 	0.7631	0.96365	0.53635	-0.453
Mof_O 	O 	0.7055	0.96392	0.53608	-0.463
Mof_O 	O 	0.79515	0.84999	0.65001	-0.534
Mof_O 	O 	0.82516	0.88464	0.61536	-0.482
Mof_O 	O 	0.9288	0.8774	0.6226	-0.535
Mof_C 	C 	0.7338	0.9533	0.5467	0.38
Mof_C 	C 	0.7353	0.92588	0.57412	-0.094
Mof_C 	C 	0.7037	0.91375	0.58625	-0.05
Mof_H 	H 	0.6832	0.9226	0.5774	0.056
Mof_C 	C 	0.7026	0.88744	0.61256	0.034
Mof_C 	C 	0.7338	0.87545	0.62455	-0.044
Mof_H 	H 	0.7341	0.8585	0.6415	0.035
Mof_C 	C 	0.7644	0.8878	0.6122	-0.104
Mof_C 	C 	0.7657	0.91306	0.58694	0.029
Mof_H 	H 	0.7868	0.9212	0.5788	0.038
Mof_C 	C 	0.799	0.8731	0.6269	0.42
Mof_C 	C 	0.6696	0.87315	0.62685	-0.135
Mof_H 	H 	0.93938	0.8609	0.6391	0.177
Mof_O 	O 	0.913	0.8991	0.6009	-0.079
Mof_O 	O 	0.7631	0.46365	0.03635	-0.466
Mof_O 	O 	0.7055	0.46392	0.03608	-0.476
Mof_O 	O 	0.79515	0.34999	0.15001	-0.535
Mof_O 	O 	0.82516	0.38464	0.11536	-0.483
Mof_O 	O 	0.9288	0.3774	0.1226	-0.534
Mof_C 	C 	0.7338	0.4533	0.0467	0.382
Mof_C 	C 	0.7353	0.42588	0.07412	-0.1
Mof_C 	C 	0.7037	0.41375	0.08625	-0.047
Mof_H 	H 	0.6832	0.4226	0.0774	0.052
Mof_C 	C 	0.7026	0.38744	0.11256	0.03
Mof_C 	C 	0.7338	0.37545	0.12455	-0.041
Mof_H 	H 	0.7341	0.3585	0.1415	0.034
Mof_C 	C 	0.7644	0.3878	0.1122	-0.108
Mof_C 	C 	0.7657	0.41306	0.08694	0.031
Mof_H 	H 	0.7868	0.4212	0.0788	0.034
Mof_C 	C 	0.799	0.3731	0.1269	0.42
Mof_C 	C 	0.6696	0.37315	0.12685	-0.131
Mof_H 	H 	0.93938	0.3609	0.1391	0.176
Mof_O 	O 	0.913	0.3991	0.1009	-0.079
Mof_O 	O 	0.7369	0.96365	0.96365	-0.445
Mof_O 	O 	0.7945	0.96392	0.96392	-0.454
Mof_O 	O 	0.70485	0.84999	0.84999	-0.534
Mof_O 	O 	0.67484	0.88464	0.88464	-0.481
Mof_O 	O 	0.5712	0.8774	0.8774	-0.533
Mof_C 	C 	0.7662	0.9533	0.9533	0.378
Mof_C 	C 	0.7647	0.92588	0.92588	-0.09
Mof_C 	C 	0.7963	0.91375	0.91375	-0.053
Mof_H 	H 	0.8168	0.9226	0.9226	0.059
Mof_C 	C 	0.7974	0.88744	0.88744	0.037
Mof_C 	C 	0.7662	0.87545	0.87545	-0.046
Mof_H 	H 	0.7659	0.8585	0.8585	0.036
Mof_C 	C 	0.7356	0.8878	0.8878	-0.102
Mof_C 	C 	0.7343	0.91306	0.91306	0.027
Mof_H 	H 	0.7132	0.9212	0.9212	0.04
Mof_C 	C 	0.701	0.8731	0.8731	0.42
Mof_C 	C 	0.8304	0.87315	0.87315	-0.138
Mof_H 	H 	0.56062	0.8609	0.8609	0.174
Mof_O 	O 	0.587	0.8991	0.8991	-0.08
Mof_O 	O 	0.7369	0.46365	0.46365	-0.462
Mof_O 	O 	0.7945	0.46392	0.46392	-0.471
Mof_O 	O 	0.70485	0.34999	0.34999	-0.535
Mof_O 	O 	0.67484	0.38464	0.38464	-0.482
Mof_O 	O 	0.5712	0.3774	0.3774	-0.533
Mof_C 	C 	0.7662	0.4533	0.4533	0.382
Mof_C 	C 	0.7647	0.42588	0.42588	-0.097
Mof_C 	C 	0.7963	0.41375	0.41375	-0.049
Mof_H 	H 	0.8168	0.4226	0.4226	0.054
Mof_C 	C 	0.7974	0.38744	0.38744	0.032
Mof_C 	C 	0.7662	0.37545	0.37545	-0.043
Mof_H 	H 	0.7659	0.3585	0.3585	0.035
Mof_C 	C 	0.7356	0.3878	0.3878	-0.106
Mof_C 	C 	0.7343	0.41306	0.41306	0.03
Mof_H 	H 	0.7132	0.4212	0.4212	0.036
Mof_C 	C 	0.701	0.3731	0.3731	0.42
Mof_C 	C 	0.8304	0.37315	0.37315	-0.134
Mof_H 	H 	0.56062	0.3609	0.3609	0.173
Mof_O 	O 	0.587	0.3991	0.3991	-0.08
Mof_O 	O 	0.2369	0.96365	0.46365	-0.454
Mof_O 	O 	0.2945	0.96392	0.46392	-0.463
Mof_O 	O 	0.20485	0.84999	0.34999	-0.534
Mof_O 	O 	0.17484	0.88464	0.38464	-0.481
Mof_O 	O 	0.0712	0.8774	0.3774	-0.532
Mof_C 	C 	0.2662	0.9533	0.4533	0.38
Mof_C 	C 	0.2647	0.92588	0.42588	-0.094
Mof_C 	C 	0.2963	0.91375	0.41375	-0.05
Mof_H 	H 	0.3168	0.9226	0.4226	0.056
Mof_C 	C 	0.2974	0.88744	0.38744	0.034
Mof_C 	C 	0.2662	0.87545	0.37545	-0.044
Mof_H 	H 	0.2659	0.8585	0.3585	0.035
Mof_C 	C 	0.2356	0.8878	0.3878	-0.104
Mof_C 	C 	0.2343	0.91306	0.41306	0.029
Mof_H 	H 	0.2132	0.9212	0.4212	0.038
Mof_C 	C 	0.201	0.8731	0.3731	0.42
Mof_C 	C 	0.3304	0.87315	0.37315	-0.135
Mof_H 	H 	0.06062	0.8609	0.3609	0.17
Mof_O 	O 	0.087	0.8991	0.3991	-0.081
Mof_O 	O 	0.2369	0.46365	0.96365	-0.454
Mof_O 	O 	0.2945	0.46392	0.96392	-0.463
Mof_O 	O 	0.20485	0.34999	0.84999	-0.534
Mof_O 	O 	0.17484	0.38464	0.88464	-0.481
Mof_O 	O 	0.0712	0.3774	0.8774	-0.532
Mof_C 	C 	0.2662	0.4533	0.9533	0.38
Mof_C 	C 	0.2647	0.42588	0.92588	-0.094
Mof_C 	C 	0.2963	0.41375	0.91375	-0.05
Mof_H 	H 	0.3168	0.4226	0.9226	0.056
Mof_C 	C 	0.2974	0.38744	0.88744	0.034
Mof_C 	C 	0.2662	0.37545	0.87545	-0.044
Mof_H 	H 	0.2659	0.3585	0.8585	0.035
Mof_C 	C 	0.2356	0.3878	0.8878	-0.104
Mof_C 	C 	0.2343	0.41306	0.91306	0.029
Mof_H 	H 	0.2132	0.4212	0.9212	0.038
Mof_C 	C 	0.201	0.3731	0.8731	0.42
Mof_C 	C 	0.3304	0.37315	0.87315	-0.135
Mof_H 	H 	0.06062	0.3609	0.8609	0.17
Mof_O 	O 	0.087	0.3991	0.8991	-0.081
Mof_O 	O 	0.2631	0.96365	0.96365	-0.445
Mof_O 	O 	0.2055	0.96392	0.96392	-0.455
Mof_O 	O 	0.29515	0.84999	0.84999	-0.534
Mof_O 	O 	0.32516	0.88464	0.88464	-0.481
Mof_O 	O 	0.4288	0.8774	0.8774	-0.533
Mof_C 	C 	0.2338	0.9533	0.9533	0.379
Mof_C 	C 	0.2353	0.92588	0.92588	-0.091
Mof_C 	C 	0.2037	0.91375	0.91375	-0.052
Mof_H 	H 	0.1832	0.9226	0.9226	0.058
Mof_C 	C 	0.2026	0.88744	0.88744	0.035
Mof_C 	C 	0.2338	0.87545	0.87545	-0.045
Mof_H 	H 	0.2341	0.8585	0.8585	0.036
Mof_C 	C 	0.2644	0.8878	0.8878	-0.102
Mof_C 	C 	0.2657	0.91306	0.91306	0.027
Mof_H 	H 	0.2868	0.9212	0.9212	0.04
Mof_C 	C 	0.299	0.8731	0.8731	0.42
Mof_C 	C 	0.1696	0.87315	0.87315	-0.136
Mof_H 	H 	0.43938	0.8609	0.8609	0.174
Mof_O 	O 	0.413	0.8991	0.8991	-0.08
Mof_O 	O 	0.2631	0.46365	0.46365	-0.462
Mof_O 	O 	0.2055	0.46392	0.46392	-0.472
Mof_O 	O 	0.29515	0.34999	0.34999	-0.534
Mof_O 	O 	0.32516	0.38464	0.38464	-0.482
Mof_O 	O 	0.4288	0.3774	0.3774	-0.533
Mof_C 	C 	0.2338	0.4533	0.4533	0.382
Mof_C 	C 	0.2353	0.42588	0.42588	-0.098
Mof_C 	C 	0.2037	0.41375	0.41375	-0.048
Mof_H 	H 	0.1832	0.4226	0.4226	0.053
Mof_C 	C 	0.2026	0.38744	0.38744	0.031
Mof_C 	C 	0.2338	0.37545	0.37545	-0.042
Mof_H 	H 	0.2341	0.3585	0.3585	0.035
Mof_C 	C 	0.2644	0.3878	0.3878	-0.106
Mof_C 	C 	0.2657	0.41306	0.41306	0.031
Mof_H 	H 	0.2868	0.4212	0.4212	0.036
Mof_C 	C 	0.299	0.3731	0.3731	0.42
Mof_C 	C 	0.1696	0.37315	0.37315	-0.132
Mof_H 	H 	0.43938	0.3609	0.3609	0.173
Mof_O 	O 	0.413	0.3991	0.3991	-0.08
Mof_O 	O 	0.7631	0.96365	0.46365	-0.453
Mof_O 	O 	0.7055	0.96392	0.46392	-0.463
Mof_O 	O 	0.79515	0.84999	0.34999	-0.534
Mof_O 	O 	0.82516	0.88464	0.38464	-0.481
Mof_O 	O 	0.9288	0.8774	0.3774	-0.535
Mof_C 	C 	0.7338	0.9533	0.4533	0.38
Mof_C 	C 	0.7353	0.92588	0.42588	-0.094
Mof_C 	C 	0.7037	0.91375	0.41375	-0.05
Mof_H 	H 	0.6832	0.9226	0.4226	0.056
Mof_C 	C 	0.7026	0.88744	0.38744	0.034
Mof_C 	C 	0.7338	0.87545	0.37545	-0.044
Mof_H 	H 	0.7341	0.8585	0.3585	0.035
Mof_C 	C 	0.7644	0.8878	0.3878	-0.104
Mof_C 	C 	0.7657	0.91306	0.41306	0.029
Mof_H 	H 	0.7868	0.9212	0.4212	0.038
Mof_C 	C 	0.799	0.8731	0.3731	0.42
Mof_C 	C 	0.6696	0.87315	0.37315	-0.135
Mof_H 	H 	0.93938	0.8609	0.3609	0.177
Mof_O 	O 	0.913	0.8991	0.3991	-0.079
Mof_O 	O 	0.7631	0.46365	0.96365	-0.453
Mof_O 	O 	0.7055	0.46392	0.96392	-0.463
Mof_O 	O 	0.79515	0.34999	0.84999	-0.534
Mof_O 	O 	0.82516	0.38464	0.88464	-0.481
Mof_O 	O 	0.9288	0.3774	0.8774	-0.535
Mof_C 	C 	0.7338	0.4533	0.9533	0.38
Mof_C 	C 	0.7353	0.42588	0.92588	-0.094
Mof_C 	C 	0.7037	0.41375	0.91375	-0.05
Mof_H 	H 	0.6832	0.4226	0.9226	0.056
Mof_C 	C 	0.7026	0.38744	0.88744	0.034
Mof_C 	C 	0.7338	0.37545	0.87545	-0.044
Mof_H 	H 	0.7341	0.3585	0.8585	0.035
Mof_C 	C 	0.7644	0.3878	0.8878	-0.104
Mof_C 	C 	0.7657	0.41306	0.91306	0.029
Mof_H 	H 	0.7868	0.4212	0.9212	0.038
Mof_C 	C 	0.799	0.3731	0.8731	0.42
Mof_C 	C 	0.6696	0.37315	0.87315	-0.135
Mof_H 	H 	0.93938	0.3609	0.8609	0.177
Mof_O 	O 	0.913	0.3991	0.8991	-0.079
Mof_O 	O 	0.7369	0.03635	0.96365	-0.458
Mof_O 	O 	0.7945	0.03608	0.96392	-0.467
Mof_O 	O 	0.70485	0.15001	0.84999	-0.535
Mof_O 	O 	0.67484	0.11536	0.88464	-0.482
Mof_O 	O 	0.5712	0.1226	0.8774	-0.533
Mof_C 	C 	0.7662	0.0467	0.9533	0.38
Mof_C 	C 	0.7647	0.07412	0.92588	-0.096
Mof_C 	C 	0.7963	0.08625	0.91375	-0.05
Mof_H 	H 	0.8168	0.0774	0.9226	0.055
Mof_C 	C 	0.7974	0.11256	0.88744	0.033
Mof_C 	C 	0.7662	0.12455	0.87545	-0.043
Mof_H 	H 	0.7659	0.1415	0.8585	0.035
Mof_C 	C 	0.7356	0.1122	0.8878	-0.105
Mof_C 	C 	0.7343	0.08694	0.91306	0.029
Mof_H 	H 	0.7132	0.0788	0.9212	0.036
Mof_C 	C 	0.701	0.1269	0.8731	0.42
Mof_C 	C 	0.8304	0.12685	0.87315	-0.134
Mof_H 	H 	0.56062	0.1391	0.8609	0.173
Mof_O 	O 	0.587	0.1009	0.8991	-0.08
Mof_O 	O 	0.7369	0.53635	0.46365	-0.462
Mof_O 	O 	0.7945	0.53608	0.46392	-0.471
Mof_O 	O 	0.70485	0.65001	0.34999	-0.535
Mof_O 	O 	0.67484	0.61536	0.38464	-0.482
Mof_O 	O 	0.5712	0.6226	0.3774	-0.533
Mof_C 	C 	0.7662	0.5467	0.4533	0.382
Mof_C 	C 	0.7647	0.57412	0.42588	-0.097
Mof_C 	C 	0.7963	0.58625	0.41375	-0.049
Mof_H 	H 	0.8168	0.5774	0.4226	0.054
Mof_C 	C 	0.7974	0.61256	0.38744	0.032
Mof_C 	C 	0.7662	0.62455	0.37545	-0.043
Mof_H 	H 	0.7659	0.6415	0.3585	0.035
Mof_C 	C 	0.7356	0.6122	0.3878	-0.106
Mof_C 	C 	0.7343	0.58694	0.41306	0.03
Mof_H 	H 	0.7132	0.5788	0.4212	0.036
Mof_C 	C 	0.701	0.6269	0.3731	0.42
Mof_C 	C 	0.8304	0.62685	0.37315	-0.134
Mof_H 	H 	0.56062	0.6391	0.3609	0.173
Mof_O 	O 	0.587	0.6009	0.3991	-0.08
Mof_O 	O 	0.2369	0.03635	0.46365	-0.466
Mof_O 	O 	0.2945	0.03608	0.46392	-0.476
Mof_O 	O 	0.20485	0.15001	0.34999	-0.535
Mof_O 	O 	0.17484	0.11536	0.38464	-0.483
Mof_O 	O 	0.0712	0.1226	0.3774	-0.531
Mof_C 	C 	0.2662	0.0467	0.4533	0.382
Mof_C 	C 	0.2647	0.07412	0.42588	-0.1
Mof_C 	C 	0.2963	0.08625	0.41375	-0.047
Mof_H 	H 	0.3168	0.0774	0.4226	0.052
Mof_C 	C 	0.2974	0.11256	0.38744	0.03
Mof_C 	C 	0.2662	0.12455	0.37545	-0.041
Mof_H 	H 	0.2659	0.1415	0.3585	0.034
Mof_C 	C 	0.2356	0.1122	0.3878	-0.108
Mof_C 	C 	0.2343	0.08694	0.41306	0.031
Mof_H 	H 	0.2132	0.0788	0.4212	0.034
Mof_C 	C 	0.201	0.1269	0.3731	0.42
Mof_C 	C 	0.3304	0.12685	0.37315	-0.131
Mof_H 	H 	0.06062	0.1391	0.3609	0.17
Mof_O 	O 	0.087	0.1009	0.3991	-0.081
Mof_O 	O 	0.2369	0.53635	0.96365	-0.454
Mof_O 	O 	0.2945	0.53608	0.96392	-0.463
Mof_O 	O 	0.20485	0.65001	0.84999	-0.534
Mof_O 	O 	0.17484	0.61536	0.88464	-0.481
Mof_O 	O 	0.0712	0.6226	0.8774	-0.532
Mof_C 	C 	0.2662	0.5467	0.9533	0.38
Mof_C 	C 	0.2647	0.57412	0.92588	-0.094
Mof_C 	C 	0.2963	0.58625	0.91375	-0.05
Mof_H 	H 	0.3168	0.5774	0.9226	0.056
Mof_C 	C 	0.2974	0.61256	0.88744	0.034
Mof_C 	C 	0.2662	0.62455	0.87545	-0.044
Mof_H 	H 	0.2659	0.6415	0.8585	0.035
Mof_C 	C 	0.2356	0.6122	0.8878	-0.104
Mof_C 	C 	0.2343	0.58694	0.91306	0.029
Mof_H 	H 	0.2132	0.5788	0.9212	0.038
Mof_C 	C 	0.201	0.6269	0.8731	0.42
Mof_C 	C 	0.3304	0.62685	0.87315	-0.135
Mof_H 	H 	0.06062	0.6391	0.8609	0.17
Mof_O 	O 	0.087	0.6009	0.8991	-0.081
Mof_O 	O 	0.2631	0.03635	0.03635	-0.47
Mof_O 	O 	0.2055	0.03608	0.03608	-0.481
Mof_O 	O 	0.29515	0.15001	0.15001	-0.535
Mof_O 	O 	0.32516	0.11536	0.11536	-0.483
Mof_O 	O 	0.4288	0.1226	0.1226	-0.532
Mof_C 	C 	0.2338	0.0467	0.0467	0.383
Mof_C 	C 	0.2353	0.07412	0.07412	-0.103
Mof_C 	C 	0.2037	0.08625	0.08625	-0.046
Mof_H 	H 	0.1832	0.0774	0.0774	0.049
Mof_C 	C 	0.2026	0.11256	0.11256	0.028
Mof_C 	C 	0.2338	0.12455	0.12455	-0.04
Mof_H 	H 	0.2341	0.1415	0.1415	0.034
Mof_C 	C 	0.2644	0.1122	0.1122	-0.109
Mof_C 	C 	0.2657	0.08694	0.08694	0.033
Mof_H 	H 	0.2868	0.0788	0.0788	0.032
Mof_C 	C 	0.299	0.1269	0.1269	0.42
Mof_C 	C 	0.1696	0.12685	0.12685	-0.129
Mof_H 	H 	0.43938	0.1391	0.1391	0.172
Mof_O 	O 	0.413	0.1009	0.1009	-0.08
Mof_O 	O 	0.2631	0.53635	0.53635	-0.462
Mof_O 	O 	0.2055	0.53608	0.53608	-0.472
Mof_O 	O 	0.29515	0.65001	0.65001	-0.535
Mof_O 	O 	0.32516	0.61536	0.61536	-0.482
Mof_O 	O 	0.4288	0.6226	0.6226	-0.533
Mof_C 	C 	0.2338	0.5467	0.5467	0.382
Mof_C 	C 	0.2353	0.57412	0.57412	-0.098
Mof_C 	C 	0.2037	0.58625	0.58625	-0.048
Mof_H 	H 	0.1832	0.5774	0.5774	0.053
Mof_C 	C 	0.2026	0.61256	0.61256	0.031
Mof_C 	C 	0.2338	0.62455	0.62455	-0.042
Mof_H 	H 	0.2341	0.6415	0.6415	0.034
Mof_C 	C 	0.2644	0.6122	0.6122	-0.106
Mof_C 	C 	0.2657	0.58694	0.58694	0.031
Mof_H 	H 	0.2868	0.5788	0.5788	0.036
Mof_C 	C 	0.299	0.6269	0.6269	0.42
Mof_C 	C 	0.1696	0.62685	0.62685	-0.132
Mof_H 	H 	0.43938	0.6391	0.6391	0.173
Mof_O 	O 	0.413	0.6009	0.6009	-0.08
Mof_O 	O 	0.7631	0.03635	0.53635	-0.466
Mof_O 	O 	0.7055	0.03608	0.53608	-0.476
Mof_O 	O 	0.79515	0.15001	0.65001	-0.535
Mof_O 	O 	0.82516	0.11536	0.61536	-0.483
Mof_O 	O 	0.9288	0.1226	0.6226	-0.534
Mof_C 	C 	0.7338	0.0467	0.5467	0.382
Mof_C 	C 	0.7353	0.07412	0.57412	-0.1
Mof_C 	C 	0.7037	0.08625	0.58625	-0.047
Mof_H 	H 	0.6832	0.0774	0.5774	0.052
Mof_C 	C 	0.7026	0.11256	0.61256	0.03
Mof_C 	C 	0.7338	0.12455	0.62455	-0.041
Mof_H 	H 	0.7341	0.1415	0.6415	0.034
Mof_C 	C 	0.7644	0.1122	0.6122	-0.108
Mof_C 	C 	0.7657	0.08694	0.58694	0.031
Mof_H 	H 	0.7868	0.0788	0.5788	0.034
Mof_C 	C 	0.799	0.1269	0.6269	0.42
Mof_C 	C 	0.6696	0.12685	0.62685	-0.131
Mof_H 	H 	0.93938	0.1391	0.6391	0.176
Mof_O 	O 	0.913	0.1009	0.6009	-0.079
Mof_O 	O 	0.7631	0.53635	0.03635	-0.466
Mof_O 	O 	0.7055	0.53608	0.03608	-0.476
Mof_O 	O 	0.79515	0.65001	0.15001	-0.535
Mof_O 	O 	0.82516	0.61536	0.11536	-0.483
Mof_O 	O 	0.9288	0.6226	0.1226	-0.534
Mof_C 	C 	0.7338	0.5467	0.0467	0.382
Mof_C 	C 	0.7353	0.57412	0.07412	-0.1
Mof_C 	C 	0.7037	0.58625	0.08625	-0.047
Mof_H 	H 	0.6832	0.5774	0.0774	0.052
Mof_C 	C 	0.7026	0.61256	0.11256	0.03
Mof_C 	C 	0.7338	0.62455	0.12455	-0.041
Mof_H 	H 	0.7341	0.6415	0.1415	0.034
Mof_C 	C 	0.7644	0.6122	0.1122	-0.108
Mof_C 	C 	0.7657	0.58694	0.08694	0.031
Mof_H 	H 	0.7868	0.5788	0.0788	0.034
Mof_C 	C 	0.799	0.6269	0.1269	0.42
Mof_C 	C 	0.6696	0.62685	0.12685	-0.131
Mof_H 	H 	0.93938	0.6391	0.1391	0.176
Mof_O 	O 	0.913	0.6009	0.1009	-0.079
Mof_O 	O 	0.7369	0.96365	0.03635	-0.458
Mof_O 	O 	0.7945	0.96392	0.03608	-0.467
Mof_O 	O 	0.70485	0.84999	0.15001	-0.535
Mof_O 	O 	0.67484	0.88464	0.11536	-0.482
Mof_O 	O 	0.5712	0.8774	0.1226	-0.533
Mof_C 	C 	0.7662	0.9533	0.0467	0.38
Mof_C 	C 	0.7647	0.92588	0.07412	-0.096
Mof_C 	C 	0.7963	0.91375	0.08625	-0.05
Mof_H 	H 	0.8168	0.9226	0.0774	0.055
Mof_C 	C 	0.7974	0.88744	0.11256	0.033
Mof_C 	C 	0.7662	0.87545	0.12455	-0.043
Mof_H 	H 	0.7659	0.8585	0.1415	0.035
Mof_C 	C 	0.7356	0.8878	0.1122	-0.105
Mof_C 	C 	0.7343	0.91306	0.08694	0.029
Mof_H 	H 	0.7132	0.9212	0.0788	0.036
Mof_C 	C 	0.701	0.8731	0.1269	0.42
Mof_C 	C 	0.8304	0.87315	0.12685	-0.134
Mof_H 	H 	0.56062	0.8609	0.1391	0.173
Mof_O 	O 	0.587	0.8991	0.1009	-0.08
Mof_O 	O 	0.7369	0.46365	0.53635	-0.462
Mof_O 	O 	0.7945	0.46392	0.53608	-0.471
Mof_O 	O 	0.70485	0.34999	0.65001	-0.535
Mof_O 	O 	0.67484	0.38464	0.61536	-0.482
Mof_O 	O 	0.5712	0.3774	0.6226	-0.533
Mof_C 	C 	0.7662	0.4533	0.5467	0.382
Mof_C 	C 	0.7647	0.42588	0.57412	-0.097
Mof_C 	C 	0.7963	0.41375	0.58625	-0.049
Mof_H 	H 	0.8168	0.4226	0.5774	0.054
Mof_C 	C 	0.7974	0.38744	0.61256	0.032
Mof_C 	C 	0.7662	0.37545	0.62455	-0.043
Mof_H 	H 	0.7659	0.3585	0.6415	0.035
Mof_C 	C 	0.7356	0.3878	0.6122	-0.106
Mof_C 	C 	0.7343	0.41306	0.58694	0.03
Mof_H 	H 	0.7132	0.4212	0.5788	0.036
Mof_C 	C 	0.701	0.3731	0.6269	0.42
Mof_C 	C 	0.8304	0.37315	0.62685	-0.134
Mof_H 	H 	0.56062	0.3609	0.6391	0.173
Mof_O 	O 	0.587	0.3991	0.6009	-0.08
Mof_O 	O 	0.2369	0.96365	0.53635	-0.454
Mof_O 	O 	0.2945	0.96392	0.53608	-0.463
Mof_O 	O 	0.20485	0.84999	0.65001	-0.534
Mof_O 	O 	0.17484	0.88464	0.61536	-0.481
Mof_O 	O 	0.0712	0.8774	0.6226	-0.532
Mof_C 	C 	0.2662	0.9533	0.5467	0.38
Mof_C 	C 	0.2647	0.92588	0.57412	-0.094
Mof_C 	C 	0.2963	0.91375	0.58625	-0.05
Mof_H 	H 	0.3168	0.9226	0.5774	0.056
Mof_C 	C 	0.2974	0.88744	0.61256	0.034
Mof_C 	C 	0.2662	0.87545	0.62455	-0.044
Mof_H 	H 	0.2659	0.8585	0.6415	0.035
Mof_C 	C 	0.2356	0.8878	0.6122	-0.104
Mof_C 	C 	0.2343	0.91306	0.58694	0.029
Mof_H 	H 	0.2132	0.9212	0.5788	0.038
Mof_C 	C 	0.201	0.8731	0.6269	0.42
Mof_C 	C 	0.3304	0.87315	0.62685	-0.135
Mof_H 	H 	0.06062	0.8609	0.6391	0.17
Mof_O 	O 	0.087	0.8991	0.6009	-0.081
Mof_O 	O 	0.2369	0.46365	0.03635	-0.466
Mof_O 	O 	0.2945	0.46392	0.03608	-0.476
Mof_O 	O 	0.20485	0.34999	0.15001	-0.535
Mof_O 	O 	0.17484	0.38464	0.11536	-0.483
Mof_O 	O 	0.0712	0.3774	0.1226	-0.531
Mof_C 	C 	0.2662	0.4533	0.0467	0.382
Mof_C 	C 	0.2647	0.42588	0.07412	-0.1
Mof_C 	C 	0.2963	0.41375	0.08625	-0.047
Mof_H 	H 	0.3168	0.4226	0.0774	0.052
Mof_C 	C 	0.2974	0.38744	0.11256	0.03
Mof_C 	C 	0.2662	0.37545	0.12455	-0.041
Mof_H 	H 	0.2659	0.3585	0.1415	0.034
Mof_C 	C 	0.2356	0.3878	0.1122	-0.108
Mof_C 	C 	0.2343	0.41306	0.08694	0.031
Mof_H 	H 	0.2132	0.4212	0.0788	0.034
Mof_C 	C 	0.201	0.3731	0.1269	0.42
Mof_C 	C 	0.3304	0.37315	0.12685	-0.131
Mof_H 	H 	0.06062	0.3609	0.1391	0.17
Mof_O 	O 	0.087	0.3991	0.1009	-0.081
Mof_O 	O 	0.96365	0.03635	0.7369	-0.458
Mof_O 	O 	0.96392	0.03608	0.7945	-0.467
Mof_O 	O 	0.84999	0.15001	0.70485	-0.535
Mof_O 	O 	0.88464	0.11536	0.67484	-0.482
Mof_O 	O 	0.8774	0.1226	0.5712	-0.533
Mof_C 	C 	0.9533	0.0467	0.7662	0.38
Mof_C 	C 	0.92588	0.07412	0.7647	-0.096
Mof_C 	C 	0.91375	0.08625	0.7963	-0.05
Mof_H 	H 	0.9226	0.0774	0.8168	0.055
Mof_C 	C 	0.88744	0.11256	0.7974	0.033
Mof_C 	C 	0.87545	0.12455	0.7662	-0.043
Mof_H 	H 	0.8585	0.1415	0.7659	0.035
Mof_C 	C 	0.8878	0.1122	0.7356	-0.105
Mof_C 	C 	0.91306	0.08694	0.7343	0.029
Mof_H 	H 	0.9212	0.0788	0.7132	0.036
Mof_C 	C 	0.8731	0.1269	0.701	0.42
Mof_C 	C 	0.87315	0.12685	0.8304	-0.134
Mof_H 	H 	0.8609	0.1391	0.56062	0.173
Mof_O 	O 	0.8991	0.1009	0.587	-0.08
Mof_O 	O 	0.96365	0.53635	0.2369	-0.454
Mof_O 	O 	0.96392	0.53608	0.2945	-0.463
Mof_O 	O 	0.84999	0.65001	0.20485	-0.534
Mof_O 	O 	0.88464	0.61536	0.17484	-0.481
Mof_O 	O 	0.8774	0.6226	0.0712	-0.532
Mof_C 	C 	0.9533	0.5467	0.2662	0.38
Mof_C 	C 	0.92588	0.57412	0.2647	-0.094
Mof_C 	C 	0.91375	0.58625	0.2963	-0.05
Mof_H 	H 	0.9226	0.5774	0.3168	0.056
Mof_C 	C 	0.88744	0.61256	0.2974	0.034
Mof_C 	C 	0.87545	0.62455	0.2662	-0.044
Mof_H 	H 	0.8585	0.6415	0.2659	0.035
Mof_C 	C 	0.8878	0.6122	0.2356	-0.104
Mof_C 	C 	0.91306	0.58694	0.2343	0.029
Mof_H 	H 	0.9212	0.5788	0.2132	0.038
Mof_C 	C 	0.8731	0.6269	0.201	0.42
Mof_C 	C 	0.87315	0.62685	0.3304	-0.135
Mof_H 	H 	0.8609	0.6391	0.06062	0.17
Mof_O 	O 	0.8991	0.6009	0.087	-0.081
Mof_O 	O 	0.46365	0.03635	0.2369	-0.466
Mof_O 	O 	0.46392	0.03608	0.2945	-0.476
Mof_O 	O 	0.34999	0.15001	0.20485	-0.535
Mof_O 	O 	0.38464	0.11536	0.17484	-0.483
Mof_O 	O 	0.3774	0.1226	0.0712	-0.531
Mof_C 	C 	0.4533	0.0467	0.2662	0.382
Mof_C 	C 	0.42588	0.07412	0.2647	-0.1
Mof_C 	C 	0.41375	0.08625	0.2963	-0.047
Mof_H 	H 	0.4226	0.0774	0.3168	0.052
Mof_C 	C 	0.38744	0.11256	0.2974	0.03
Mof_C 	C 	0.37545	0.12455	0.2662	-0.041
Mof_H 	H 	0.3585	0.1415	0.2659	0.034
Mof_C 	C 	0.3878	0.1122	0.2356	-0.108
Mof_C 	C 	0.41306	0.08694	0.2343	0.031
Mof_H 	H 	0.4212	0.0788	0.2132	0.034
Mof_C 	C 	0.3731	0.1269	0.201	0.42
Mof_C 	C 	0.37315	0.12685	0.3304	-0.131
Mof_H 	H 	0.3609	0.1391	0.06062	0.17
Mof_O 	O 	0.3991	0.1009	0.087	-0.081
Mof_O 	O 	0.46365	0.53635	0.7369	-0.462
Mof_O 	O 	0.46392	0.53608	0.7945	-0.471
Mof_O 	O 	0.34999	0.65001	0.70485	-0.535
Mof_O 	O 	0.38464	0.61536	0.67484	-0.482
Mof_O 	O 	0.3774	0.6226	0.5712	-0.533
Mof_C 	C 	0.4533	0.5467	0.7662	0.382
Mof_C 	C 	0.42588	0.57412	0.7647	-0.097
Mof_C 	C 	0.41375	0.58625	0.7963	-0.049
Mof_H 	H 	0.4226	0.5774	0.8168	0.054
Mof_C 	C 	0.38744	0.61256	0.7974	0.032
Mof_C 	C 	0.37545	0.62455	0.7662	-0.043
Mof_H 	H 	0.3585	0.6415	0.7659	0.035
Mof_C 	C 	0.3878	0.6122	0.7356	-0.106
Mof_C 	C 	0.41306	0.58694	0.7343	0.03
Mof_H 	H 	0.4212	0.5788	0.7132	0.036
Mof_C 	C 	0.3731	0.6269	0.701	0.42
Mof_C 	C 	0.37315	0.62685	0.8304	-0.134
Mof_H 	H 	0.3609	0.6391	0.56062	0.173
Mof_O 	O 	0.3991	0.6009	0.587	-0.08
Mof_O 	O 	0.03635	0.03635	0.2631	-0.47
Mof_O 	O 	0.03608	0.03608	0.2055	-0.481
Mof_O 	O 	0.15001	0.15001	0.29515	-0.535
Mof_O 	O 	0.11536	0.11536	0.32516	-0.483
Mof_O 	O 	0.1226	0.1226	0.4288	-0.532
Mof_C 	C 	0.0467	0.0467	0.2338	0.383
Mof_C 	C 	0.07412	0.07412	0.2353	-0.103
Mof_C 	C 	0.08625	0.08625	0.2037	-0.046
Mof_H 	H 	0.0774	0.0774	0.1832	0.049
Mof_C 	C 	0.11256	0.11256	0.2026	0.028
Mof_C 	C 	0.12455	0.12455	0.2338	-0.04
Mof_H 	H 	0.1415	0.1415	0.2341	0.034
Mof_C 	C 	0.1122	0.1122	0.2644	-0.109
Mof_C 	C 	0.08694	0.08694	0.2657	0.033
Mof_H 	H 	0.0788	0.0788	0.2868	0.032
Mof_C 	C 	0.1269	0.1269	0.299	0.42
Mof_C 	C 	0.12685	0.12685	0.1696	-0.129
Mof_H 	H 	0.1391	0.1391	0.43938	0.172
Mof_O 	O 	0.1009	0.1009	0.413	-0.08
Mof_O 	O 	0.03635	0.53635	0.7631	-0.466
Mof_O 	O 	0.03608	0.53608	0.7055	-0.476
Mof_O 	O 	0.15001	0.65001	0.79515	-0.535
Mof_O 	O 	0.11536	0.61536	0.82516	-0.483
Mof_O 	O 	0.1226	0.6226	0.9288	-0.534
Mof_C 	C 	0.0467	0.5467	0.7338	0.382
Mof_C 	C 	0.07412	0.57412	0.7353	-0.1
Mof_C 	C 	0.08625	0.58625	0.7037	-0.047
Mof_H 	H 	0.0774	0.5774	0.6832	0.052
Mof_C 	C 	0.11256	0.61256	0.7026	0.03
Mof_C 	C 	0.12455	0.62455	0.7338	-0.041
Mof_H 	H 	0.1415	0.6415	0.7341	0.034
Mof_C 	C 	0.1122	0.6122	0.7644	-0.108
Mof_C 	C 	0.08694	0.58694	0.7657	0.031
Mof_H 	H 	0.0788	0.5788	0.7868	0.034
Mof_C 	C 	0.1269	0.6269	0.799	0.42
Mof_C 	C 	0.12685	0.62685	0.6696	-0.131
Mof_H 	H 	0.1391	0.6391	0.93938	0.176
Mof_O 	O 	0.1009	0.6009	0.913	-0.079
Mof_O 	O 	0.53635	0.03635	0.7631	-0.466
Mof_O 	O 	0.53608	0.03608	0.7055	-0.476
Mof_O 	O 	0.65001	0.15001	0.79515	-0.535
Mof_O 	O 	0.61536	0.11536	0.82516	-0.483
Mof_O 	O 	0.6226	0.1226	0.9288	-0.534
Mof_C 	C 	0.5467	0.0467	0.7338	0.382
Mof_C 	C 	0.57412	0.07412	0.7353	-0.1
Mof_C 	C 	0.58625	0.08625	0.7037	-0.047
Mof_H 	H 	0.5774	0.0774	0.6832	0.052
Mof_C 	C 	0.61256	0.11256	0.7026	0.03
Mof_C 	C 	0.62455	0.12455	0.7338	-0.041
Mof_H 	H 	0.6415	0.1415	0.7341	0.034
Mof_C 	C 	0.6122	0.1122	0.7644	-0.108
Mof_C 	C 	0.58694	0.08694	0.7657	0.031
Mof_H 	H 	0.5788	0.0788	0.7868	0.034
Mof_C 	C 	0.6269	0.1269	0.799	0.42
Mof_C 	C 	0.62685	0.12685	0.6696	-0.131
Mof_H 	H 	0.6391	0.1391	0.93938	0.176
Mof_O 	O 	0.6009	0.1009	0.913	-0.079
Mof_O 	O 	0.53635	0.53635	0.2631	-0.462
Mof_O 	O 	0.53608	0.53608	0.2055	-0.472
Mof_O 	O 	0.65001	0.65001	0.29515	-0.535
Mof_O 	O 	0.61536	0.61536	0.32516	-0.482
Mof_O 	O 	0.6226	0.6226	0.4288	-0.533
Mof_C 	C 	0.5467	0.5467	0.2338	0.382
Mof_C 	C 	0.57412	0.57412	0.2353	-0.098
Mof_C 	C 	0.58625	0.58625	0.2037	-0.048
Mof_H 	H 	0.5774	0.5774	0.1832	0.053
Mof_C 	C 	0.61256	0.61256	0.2026	0.031
Mof_C 	C 	0.62455	0.62455	0.2338	-0.042
Mof_H 	H 	0.6415	0.6415	0.2341	0.034
Mof_C 	C 	0.6122	0.6122	0.2644	-0.106
Mof_C 	C 	0.58694	0.58694	0.2657	0.031
Mof_H 	H 	0.5788	0.5788	0.2868	0.036
Mof_C 	C 	0.6269	0.6269	0.299	0.42
Mof_C 	C 	0.62685	0.62685	0.1696	-0.132
Mof_H 	H 	0.6391	0.6391	0.43938	0.173
Mof_O 	O 	0.6009	0.6009	0.413	-0.08
Mof_O 	O 	0.03635	0.96365	0.7369	-0.458
Mof_O 	O 	0.03608	0.96392	0.7945	-0.467
Mof_O 	O 	0.15001	0.84999	0.70485	-0.535
Mof_O 	O 	0.11536	0.88464	0.67484	-0.482
Mof_O 	O 	0.1226	0.8774	0.5712	-0.533
Mof_C 	C 	0.0467	0.9533	0.7662	0.38
Mof_C 	C 	0.07412	0.92588	0.7647	-0.096
Mof_C 	C 	0.08625	0.91375	0.7963	-0.05
Mof_H 	H 	0.0774	0.9226	0.8168	0.055
Mof_C 	C 	0.11256	0.88744	0.7974	0.033
Mof_C 	C 	0.12455	0.87545	0.7662	-0.043
Mof_H 	H 	0.1415	0.8585	0.7659	0.035
Mof_C 	C 	0.1122	0.8878	0.7356	-0.105
Mof_C 	C 	0.08694	0.91306	0.7343	0.029
Mof_H 	H 	0.0788	0.9212	0.7132	0.036
Mof_C 	C 	0.1269	0.8731	0.701	0.42
Mof_C 	C 	0.12685	0.87315	0.8304	-0.134
Mof_H 	H 	0.1391	0.8609	0.56062	0.173
Mof_O 	O 	0.1009	0.8991	0.587	-0.08
Mof_O 	O 	0.03635	0.46365	0.2369	-0.466
Mof_O 	O 	0.03608	0.46392	0.2945	-0.476
Mof_O 	O 	0.15001	0.34999	0.20485	-0.535
Mof_O 	O 	0.11536	0.38464	0.17484	-0.483
Mof_O 	O 	0.1226	0.3774	0.0712	-0.531
Mof_C 	C 	0.0467	0.4533	0.2662	0.382
Mof_C 	C 	0.07412	0.42588	0.2647	-0.1
Mof_C 	C 	0.08625	0.41375	0.2963	-0.047
Mof_H 	H 	0.0774	0.4226	0.3168	0.052
Mof_C 	C 	0.11256	0.38744	0.2974	0.03
Mof_C 	C 	0.12455	0.37545	0.2662	-0.041
Mof_H 	H 	0.1415	0.3585	0.2659	0.034
Mof_C 	C 	0.1122	0.3878	0.2356	-0.108
Mof_C 	C 	0.08694	0.41306	0.2343	0.031
Mof_H 	H 	0.0788	0.4212	0.2132	0.034
Mof_C 	C 	0.1269	0.3731	0.201	0.42
Mof_C 	C 	0.12685	0.37315	0.3304	-0.131
Mof_H 	H 	0.1391	0.3609	0.06062	0.17
Mof_O 	O 	0.1009	0.3991	0.087	-0.081
Mof_O 	O 	0.53635	0.96365	0.2369	-0.454
Mof_O 	O 	0.53608	0.96392	0.2945	-0.463
Mof_O 	O 	0.65001	0.84999	0.20485	-0.534
Mof_O 	O 	0.61536	0.88464	0.17484	-0.481
Mof_O 	O 	0.6226	0.8774	0.0712	-0.532
Mof_C 	C 	0.5467	0.9533	0.2662	0.38
Mof_C 	C 	0.57412	0.92588	0.2647	-0.094
Mof_C 	C 	0.58625	0.91375	0.2963	-0.05
Mof_H 	H 	0.5774	0.9226	0.3168	0.056
Mof_C 	C 	0.61256	0.88744	0.2974	0.034
Mof_C 	C 	0.62455	0.87545	0.2662	-0.044
Mof_H 	H 	0.6415	0.8585	0.2659	0.035
Mof_C 	C 	0.6122	0.8878	0.2356	-0.104
Mof_C 	C 	0.58694	0.91306	0.2343	0.029
Mof_H 	H 	0.5788	0.9212	0.2132	0.038
Mof_C 	C 	0.6269	0.8731	0.201	0.42
Mof_C 	C 	0.62685	0.87315	0.3304	-0.135
Mof_H 	H 	0.6391	0.8609	0.06062	0.17
Mof_O 	O 	0.6009	0.8991	0.087	-0.081
Mof_O 	O 	0.53635	0.46365	0.7369	-0.462
Mof_O 	O 	0.53608	0.46392	0.7945	-0.471
Mof_O 	O 	0.65001	0.34999	0.70485	-0.535
Mof_O 	O 	0.61536	0.38464	0.67484	-0.482
Mof_O 	O 	0.6226	0.3774	0.5712	-0.533
Mof_C 	C 	0.5467	0.4533	0.7662	0.382
Mof_C 	C 	0.57412	0.42588	0.7647	-0.097
Mof_C 	C 	0.58625	0.41375	0.7963	-0.049
Mof_H 	H 	0.5774	0.4226	0.8168	0.054
Mof_C 	C 	0.61256	0.38744	0.7974	0.032
Mof_C 	C 	0.62455	0.37545	0.7662	-0.043
Mof_H 	H 	0.6415	0.3585	0.7659	0.035
Mof_C 	C 	0.6122	0.3878	0.7356	-0.106
Mof_C 	C 	0.58694	0.41306	0.7343	0.03
Mof_H 	H 	0.5788	0.4212	0.7132	0.036
Mof_C 	C 	0.6269	0.3731	0.701	0.42
Mof_C 	C 	0.62685	0.37315	0.8304	-0.134
Mof_H 	H 	0.6391	0.3609	0.56062	0.173
Mof_O 	O 	0.6009	0.3991	0.587	-0.08
Mof_O 	O 	0.96365	0.96365	0.2631	-0.445
Mof_O 	O 	0.96392	0.96392	0.2055	-0.455
Mof_O 	O 	0.84999	0.84999	0.29515	-0.534
Mof_O 	O 	0.88464	0.88464	0.32516	-0.481
Mof_O 	O 	0.8774	0.8774	0.4288	-0.533
Mof_C 	C 	0.9533	0.9533	0.2338	0.379
Mof_C 	C 	0.92588	0.92588	0.2353	-0.091
Mof_C 	C 	0.91375	0.91375	0.2037	-0.052
Mof_H 	H 	0.9226	0.9226	0.1832	0.058
Mof_C 	C 	0.88744	0.88744	0.2026	0.035
Mof_C 	C 	0.87545	0.87545	0.2338	-0.045
Mof_H 	H 	0.8585	0.8585	0.2341	0.036
Mof_C 	C 	0.8878	0.8878	0.2644	-0.102
Mof_C 	C 	0.91306	0.91306	0.2657	0.027
Mof_H 	H 	0.9212	0.9212	0.2868	0.04
Mof_C 	C 	0.8731	0.8731	0.299	0.42
Mof_C 	C 	0.87315	0.87315	0.1696	-0.136
Mof_H 	H 	0.8609	0.8609	0.43938	0.174
Mof_O 	O 	0.8991	0.8991	0.413	-0.08
Mof_O 	O 	0.96365	0.46365	0.7631	-0.453
Mof_O 	O 	0.96392	0.46392	0.7055	-0.463
Mof_O 	O 	0.84999	0.34999	0.79515	-0.534
Mof_O 	O 	0.88464	0.38464	0.82516	-0.481
Mof_O 	O 	0.8774	0.3774	0.9288	-0.535
Mof_C 	C 	0.9533	0.4533	0.7338	0.38
Mof_C 	C 	0.92588	0.42588	0.7353	-0.094
Mof_C 	C 	0.91375	0.41375	0.7037	-0.05
Mof_H 	H 	0.9226	0.4226	0.6832	0.056
Mof_C 	C 	0.88744	0.38744	0.7026	0.034
Mof_C 	C 	0.87545	0.37545	0.7338	-0.044
Mof_H 	H 	0.8585	0.3585	0.7341	0.035
Mof_C 	C 	0.8878	0.3878	0.7644	-0.104
Mof_C 	C 	0.91306	0.41306	0.7657	0.029
Mof_H 	H 	0.9212	0.4212	0.7868	0.038
Mof_C 	C 	0.8731	0.3731	0.799	0.42
Mof_C 	C 	0.87315	0.37315	0.6696	-0.135
Mof_H 	H 	0.8609	0.3609	0.93938	0.177
Mof_O 	O 	0.8991	0.3991	0.913	-0.079
Mof_O 	O 	0.46365	0.96365	0.7631	-0.453
Mof_O 	O 	0.46392	0.96392	0.7055	-0.463
Mof_O 	O 	0.34999	0.84999	0.79515	-0.534
Mof_O 	O 	0.38464	0.88464	0.82516	-0.481
Mof_O 	O 	0.3774	0.8774	0.9288	-0.535
Mof_C 	C 	0.4533	0.9533	0.7338	0.38
Mof_C 	C 	0.42588	0.92588	0.7353	-0.094
Mof_C 	C 	0.41375	0.91375	0.7037	-0.05
Mof_H 	H 	0.4226	0.9226	0.6832	0.056
Mof_C 	C 	0.38744	0.88744	0.7026	0.034
Mof_C 	C 	0.37545	0.87545	0.7338	-0.044
Mof_H 	H 	0.3585	0.8585	0.7341	0.035
Mof_C 	C 	0.3878	0.8878	0.7644	-0.104
Mof_C 	C 	0.41306	0.91306	0.7657	0.029
Mof_H 	H 	0.4212	0.9212	0.7868	0.038
Mof_C 	C 	0.3731	0.8731	0.799	0.42
Mof_C 	C 	0.37315	0.87315	0.6696	-0.135
Mof_H 	H 	0.3609	0.8609	0.93938	0.177
Mof_O 	O 	0.3991	0.8991	0.913	-0.079
Mof_O 	O 	0.46365	0.46365	0.2631	-0.462
Mof_O 	O 	0.46392	0.46392	0.2055	-0.472
Mof_O 	O 	0.34999	0.34999	0.29515	-0.534
Mof_O 	O 	0.38464	0.38464	0.32516	-0.482
Mof_O 	O 	0.3774	0.3774	0.4288	-0.533
Mof_C 	C 	0.4533	0.4533	0.2338	0.382
Mof_C 	C 	0.42588	0.42588	0.2353	-0.098
Mof_C 	C 	0.41375	0.41375	0.2037	-0.048
Mof_H 	H 	0.4226	0.4226	0.1832	0.053
Mof_C 	C 	0.38744	0.38744	0.2026	0.031
Mof_C 	C 	0.37545	0.37545	0.2338	-0.042
Mof_H 	H 	0.3585	0.3585	0.2341	0.035
Mof_C 	C 	0.3878	0.3878	0.2644	-0.106
Mof_C 	C 	0.41306	0.41306	0.2657	0.031
Mof_H 	H 	0.4212	0.4212	0.2868	0.036
Mof_C 	C 	0.3731	0.3731	0.299	0.42
Mof_C 	C 	0.37315	0.37315	0.1696	-0.132
Mof_H 	H 	0.3609	0.3609	0.43938	0.173
Mof_O 	O 	0.3991	0.3991	0.413	-0.08
Mof_O 	O 	0.03635	0.2631	0.03635	-0.47
Mof_O 	O 	0.03608	0.2055	0.03608	-0.481
Mof_O 	O 	0.15001	0.29515	0.15001	-0.535
Mof_O 	O 	0.11536	0.32516	0.11536	-0.483
Mof_O 	O 	0.1226	0.4288	0.1226	-0.532
Mof_C 	C 	0.0467	0.2338	0.0467	0.383
Mof_C 	C 	0.07412	0.2353	0.07412	-0.103
Mof_C 	C 	0.08625	0.2037	0.08625	-0.046
Mof_H 	H 	0.0774	0.1832	0.0774	0.049
Mof_C 	C 	0.11256	0.2026	0.11256	0.028
Mof_C 	C 	0.12455	0.2338	0.12455	-0.04
Mof_H 	H 	0.1415	0.2341	0.1415	0.034
Mof_C 	C 	0.1122	0.2644	0.1122	-0.109
Mof_C 	C 	0.08694	0.2657	0.08694	0.033
Mof_H 	H 	0.0788	0.2868	0.0788	0.032
Mof_C 	C 	0.1269	0.299	0.1269	0.42
Mof_C 	C 	0.12685	0.1696	0.12685	-0.129
Mof_H 	H 	0.1391	0.43938	0.1391	0.172
Mof_O 	O 	0.1009	0.413	0.1009	-0.08
Mof_O 	O 	0.03635	0.7631	0.53635	-0.466
Mof_O 	O 	0.03608	0.7055	0.53608	-0.476
Mof_O 	O 	0.15001	0.79515	0.65001	-0.535
Mof_O 	O 	0.11536	0.82516	0.61536	-0.483
Mof_O 	O 	0.1226	0.9288	0.6226	-0.534
Mof_C 	C 	0.0467	0.7338	0.5467	0.382
Mof_C 	C 	0.07412	0.7353	0.57412	-0.1
Mof_C 	C 	0.08625	0.7037	0.58625	-0.047
Mof_H 	H 	0.0774	0.6832	0.5774	0.052
Mof_C 	C 	0.11256	0.7026	0.61256	0.03
Mof_C 	C 	0.12455	0.7338	0.62455	-0.041
Mof_H 	H 	0.1415	0.7341	0.6415	0.034
Mof_C 	C 	0.1122	0.7644	0.6122	-0.108
Mof_C 	C 	0.08694	0.7657	0.58694	0.031
Mof_H 	H 	0.0788	0.7868	0.5788	0.034
Mof_C 	C 	0.1269	0.799	0.6269	0.42
Mof_C 	C 	0.12685	0.6696	0.62685	-0.131
Mof_H 	H 	0.1391	0.93938	0.6391	0.176
Mof_O 	O 	0.1009	0.913	0.6009	-0.079
Mof_O 	O 	0.53635	0.2631	0.53635	-0.462
Mof_O 	O 	0.53608	0.2055	0.53608	-0.472
Mof_O 	O 	0.65001	0.29515	0.65001	-0.535
Mof_O 	O 	0.61536	0.32516	0.61536	-0.482
Mof_O 	O 	0.6226	0.4288	0.6226	-0.533
Mof_C 	C 	0.5467	0.2338	0.5467	0.382
Mof_C 	C 	0.57412	0.2353	0.57412	-0.098
Mof_C 	C 	0.58625	0.2037	0.58625	-0.048
Mof_H 	H 	0.5774	0.1832	0.5774	0.053
Mof_C 	C 	0.61256	0.2026	0.61256	0.031
Mof_C 	C 	0.62455	0.2338	0.62455	-0.042
Mof_H 	H 	0.6415	0.2341	0.6415	0.034
Mof_C 	C 	0.6122	0.2644	0.6122	-0.106
Mof_C 	C 	0.58694	0.2657	0.58694	0.031
Mof_H 	H 	0.5788	0.2868	0.5788	0.036
Mof_C 	C 	0.6269	0.299	0.6269	0.42
Mof_C 	C 	0.62685	0.1696	0.62685	-0.132
Mof_H 	H 	0.6391	0.43938	0.6391	0.173
Mof_O 	O 	0.6009	0.413	0.6009	-0.08
Mof_O 	O 	0.53635	0.7631	0.03635	-0.466
Mof_O 	O 	0.53608	0.7055	0.03608	-0.476
Mof_O 	O 	0.65001	0.79515	0.15001	-0.535
Mof_O 	O 	0.61536	0.82516	0.11536	-0.483
Mof_O 	O 	0.6226	0.9288	0.1226	-0.534
Mof_C 	C 	0.5467	0.7338	0.0467	0.382
Mof_C 	C 	0.57412	0.7353	0.07412	-0.1
Mof_C 	C 	0.58625	0.7037	0.08625	-0.047
Mof_H 	H 	0.5774	0.6832	0.0774	0.052
Mof_C 	C 	0.61256	0.7026	0.11256	0.03
Mof_C 	C 	0.62455	0.7338	0.12455	-0.041
Mof_H 	H 	0.6415	0.7341	0.1415	0.034
Mof_C 	C 	0.6122	0.7644	0.1122	-0.108
Mof_C 	C 	0.58694	0.7657	0.08694	0.031
Mof_H 	H 	0.5788	0.7868	0.0788	0.034
Mof_C 	C 	0.6269	0.799	0.1269	0.42
Mof_C 	C 	0.62685	0.6696	0.12685	-0.131
Mof_H 	H 	0.6391	0.93938	0.1391	0.176
Mof_O 	O 	0.6009	0.913	0.1009	-0.079
Mof_O 	O 	0.03635	0.7369	0.96365	-0.458
Mof_O 	O 	0.03608	0.7945	0.96392	-0.467
Mof_O 	O 	0.15001	0.70485	0.84999	-0.535
Mof_O 	O 	0.11536	0.67484	0.88464	-0.482
Mof_O 	O 	0.1226	0.5712	0.8774	-0.533
Mof_C 	C 	0.0467	0.7662	0.9533	0.38
Mof_C 	C 	0.07412	0.7647	0.92588	-0.096
Mof_C 	C 	0.08625	0.7963	0.91375	-0.05
Mof_H 	H 	0.0774	0.8168	0.9226	0.055
Mof_C 	C 	0.11256	0.7974	0.88744	0.033
Mof_C 	C 	0.12455	0.7662	0.87545	-0.043
Mof_H 	H 	0.1415	0.7659	0.8585	0.035
Mof_C 	C 	0.1122	0.7356	0.8878	-0.105
Mof_C 	C 	0.08694	0.7343	0.91306	0.029
Mof_H 	H 	0.0788	0.7132	0.9212	0.036
Mof_C 	C 	0.1269	0.701	0.8731	0.42
Mof_C 	C 	0.12685	0.8304	0.87315	-0.134
Mof_H 	H 	0.1391	0.56062	0.8609	0.173
Mof_O 	O 	0.1009	0.587	0.8991	-0.08
Mof_O 	O 	0.03635	0.2369	0.46365	-0.466
Mof_O 	O 	0.03608	0.2945	0.46392	-0.476
Mof_O 	O 	0.15001	0.20485	0.34999	-0.535
Mof_O 	O 	0.11536	0.17484	0.38464	-0.483
Mof_O 	O 	0.1226	0.0712	0.3774	-0.531
Mof_C 	C 	0.0467	0.2662	0.4533	0.382
Mof_C 	C 	0.07412	0.2647	0.42588	-0.1
Mof_C 	C 	0.08625	0.2963	0.41375	-0.047
Mof_H 	H 	0.0774	0.3168	0.4226	0.052
Mof_C 	C 	0.11256	0.2974	0.38744	0.03
Mof_C 	C 	0.12455	0.2662	0.37545	-0.041
Mof_H 	H 	0.1415	0.2659	0.3585	0.034
Mof_C 	C 	0.1122	0.2356	0.3878	-0.108
Mof_C 	C 	0.08694	0.2343	0.41306	0.031
Mof_H 	H 	0.0788	0.2132	0.4212	0.034
Mof_C 	C 	0.1269	0.201	0.3731	0.42
Mof_C 	C 	0.12685	0.3304	0.37315	-0.131
Mof_H 	H 	0.1391	0.06062	0.3609	0.17
Mof_O 	O 	0.1009	0.087	0.3991	-0.081
Mof_O 	O 	0.53635	0.7369	0.46365	-0.462
Mof_O 	O 	0.53608	0.7945	0.46392	-0.471
Mof_O 	O 	0.65001	0.70485	0.34999	-0.535
Mof_O 	O 	0.61536	0.67484	0.38464	-0.482
Mof_O 	O 	0.6226	0.5712	0.3774	-0.533
Mof_C 	C 	0.5467	0.7662	0.4533	0.382
Mof_C 	C 	0.57412	0.7647	0.42588	-0.097
Mof_C 	C 	0.58625	0.7963	0.41375	-0.049
Mof_H 	H 	0.5774	0.8168	0.4226	0.054
Mof_C 	C 	0.61256	0.7974	0.38744	0.032
Mof_C 	C 	0.62455	0.7662	0.37545	-0.043
Mof_H 	H 	0.6415	0.7659	0.3585	0.035
Mof_C 	C 	0.6122	0.7356	0.3878	-0.106
Mof_C 	C 	0.58694	0.7343	0.41306	0.03
Mof_H 	H 	0.5788	0.7132	0.4212	0.036
Mof_C 	C 	0.6269	0.701	0.3731	0.42
Mof_C 	C 	0.62685	0.8304	0.37315	-0.134
Mof_H 	H 	0.6391	0.56062	0.3609	0.173
Mof_O 	O 	0.6009	0.587	0.3991	-0.08
Mof_O 	O 	0.53635	0.2369	0.96365	-0.454
Mof_O 	O 	0.53608	0.2945	0.96392	-0.463
Mof_O 	O 	0.65001	0.20485	0.84999	-0.534
Mof_O 	O 	0.61536	0.17484	0.88464	-0.481
Mof_O 	O 	0.6226	0.0712	0.8774	-0.532
Mof_C 	C 	0.5467	0.2662	0.9533	0.38
Mof_C 	C 	0.57412	0.2647	0.92588	-0.094
Mof_C 	C 	0.58625	0.2963	0.91375	-0.05
Mof_H 	H 	0.5774	0.3168	0.9226	0.056
Mof_C 	C 	0.61256	0.2974	0.88744	0.034
Mof_C 	C 	0.62455	0.2662	0.87545	-0.044
Mof_H 	H 	0.6415	0.2659	0.8585	0.035
Mof_C 	C 	0.6122	0.2356	0.8878	-0.104
Mof_C 	C 	0.58694	0.2343	0.91306	0.029
Mof_H 	H 	0.5788	0.2132	0.9212	0.038
Mof_C 	C 	0.6269	0.201	0.8731	0.42
Mof_C 	C 	0.62685	0.3304	0.87315	-0.135
Mof_H 	H 	0.6391	0.06062	0.8609	0.17
Mof_O 	O 	0.6009	0.087	0.8991	-0.081
Mof_O 	O 	0.96365	0.2631	0.96365	-0.445
Mof_O 	O 	0.96392	0.2055	0.96392	-0.455
Mof_O 	O 	0.84999	0.29515	0.84999	-0.534
Mof_O 	O 	0.88464	0.32516	0.88464	-0.481
Mof_O 	O 	0.8774	0.4288	0.8774	-0.533
Mof_C 	C 	0.9533	0.2338	0.9533	0.379
Mof_C 	C 	0.92588	0.2353	0.92588	-0.091
Mof_C 	C 	0.91375	0.2037	0.91375	-0.052
Mof_H 	H 	0.9226	0.1832	0.9226	0.058
Mof_C 	C 	0.88744	0.2026	0.88744	0.035
Mof_C 	C 	0.87545	0.2338	0.87545	-0.045
Mof_H 	H 	0.8585	0.2341	0.8585	0.036
Mof_C 	C 	0.8878	0.2644	0.8878	-0.102
Mof_C 	C 	0.91306	0.2657	0.91306	0.027
Mof_H 	H 	0.9212	0.2868	0.9212	0.04
Mof_C 	C 	0.8731	0.299	0.8731	0.42
Mof_C 	C 	0.87315	0.1696	0.87315	-0.136
Mof_H 	H 	0.8609	0.43938	0.8609	0.174
Mof_O 	O 	0.8991	0.413	0.8991	-0.08
Mof_O 	O 	0.96365	0.7631	0.46365	-0.453
Mof_O 	O 	0.96392	0.7055	0.46392	-0.463
Mof_O 	O 	0.84999	0.79515	0.34999	-0.534
Mof_O 	O 	0.88464	0.82516	0.38464	-0.481
Mof_O 	O 	0.8774	0.9288	0.3774	-0.535
Mof_C 	C 	0.9533	0.7338	0.4533	0.38
Mof_C 	C 	0.92588	0.7353	0.42588	-0.094
Mof_C 	C 	0.91375	0.7037	0.41375	-0.05
Mof_H 	H 	0.9226	0.6832	0.4226	0.056
Mof_C 	C 	0.88744	0.7026	0.38744	0.034
Mof_C 	C 	0.87545	0.7338	0.37545	-0.044
Mof_H 	H 	0.8585	0.7341	0.3585	0.035
Mof_C 	C 	0.8878	0.7644	0.3878	-0.104
Mof_C 	C 	0.91306	0.7657	0.41306	0.029
Mof_H 	H 	0.9212	0.7868	0.4212	0.038
Mof_C 	C 	0.8731	0.799	0.3731	0.42
Mof_C 	C 	0.87315	0.6696	0.37315	-0.135
Mof_H 	H 	0.8609	0.93938	0.3609	0.177
Mof_O 	O 	0.8991	0.913	0.3991	-0.079
Mof_O 	O 	0.46365	0.2631	0.46365	-0.462
Mof_O 	O 	0.46392	0.2055	0.46392	-0.472
Mof_O 	O 	0.34999	0.29515	0.34999	-0.534
Mof_O 	O 	0.38464	0.32516	0.38464	-0.482
Mof_O 	O 	0.3774	0.4288	0.3774	-0.533
Mof_C 	C 	0.4533	0.2338	0.4533	0.382
Mof_C 	C 	0.42588	0.2353	0.42588	-0.098
Mof_C 	C 	0.41375	0.2037	0.41375	-0.048
Mof_H 	H 	0.4226	0.1832	0.4226	0.053
Mof_C 	C 	0.38744	0.2026	0.38744	0.031
Mof_C 	C 	0.37545	0.2338	0.37545	-0.042
Mof_H 	H 	0.3585	0.2341	0.3585	0.035
Mof_C 	C 	0.3878	0.2644	0.3878	-0.106
Mof_C 	C 	0.41306	0.2657	0.41306	0.031
Mof_H 	H 	0.4212	0.2868	0.4212	0.036
Mof_C 	C 	0.3731	0.299	0.3731	0.42
Mof_C 	C 	0.37315	0.1696	0.37315	-0.132
Mof_H 	H 	0.3609	0.43938	0.3609	0.173
Mof_O 	O 	0.3991	0.413	0.3991	-0.08
Mof_O 	O 	0.46365	0.7631	0.96365	-0.453
Mof_O 	O 	0.46392	0.7055	0.96392	-0.463
Mof_O 	O 	0.34999	0.79515	0.84999	-0.534
Mof_O 	O 	0.38464	0.82516	0.88464	-0.481
Mof_O 	O 	0.3774	0.9288	0.8774	-0.535
Mof_C 	C 	0.4533	0.7338	0.9533	0.38
Mof_C 	C 	0.42588	0.7353	0.92588	-0.094
Mof_C 	C 	0.41375	0.7037	0.91375	-0.05
Mof_H 	H 	0.4226	0.6832	0.9226	0.056
Mof_C 	C 	0.38744	0.7026	0.88744	0.034
Mof_C 	C 	0.37545	0.7338	0.87545	-0.044
Mof_H 	H 	0.3585	0.7341	0.8585	0.035
Mof_C 	C 	0.3878	0.7644	0.8878	-0.104
Mof_C 	C 	0.41306	0.7657	0.91306	0.029
Mof_H 	H 	0.4212	0.7868	0.9212	0.038
Mof_C 	C 	0.3731	0.799	0.8731	0.42
Mof_C 	C 	0.37315	0.6696	0.87315	-0.135
Mof_H 	H 	0.3609	0.93938	0.8609	0.177
Mof_O 	O 	0.3991	0.913	0.8991	-0.079
Mof_O 	O 	0.96365	0.7369	0.03635	-0.458
Mof_O 	O 	0.96392	0.7945	0.03608	-0.467
Mof_O 	O 	0.84999	0.70485	0.15001	-0.535
Mof_O 	O 	0.88464	0.67484	0.11536	-0.482
Mof_O 	O 	0.8774	0.5712	0.1226	-0.533
Mof_C 	C 	0.9533	0.7662	0.0467	0.38
Mof_C 	C 	0.92588	0.7647	0.07412	-0.096
Mof_C 	C 	0.91375	0.7963	0.08625	-0.05
Mof_H 	H 	0.9226	0.8168	0.0774	0.055
Mof_C 	C 	0.88744	0.7974	0.11256	0.033
Mof_C 	C 	0.87545	0.7662	0.12455	-0.043
Mof_H 	H 	0.8585	0.7659	0.1415	0.035
Mof_C 	C 	0.8878	0.7356	0.1122	-0.105
Mof_C 	C 	0.91306	0.7343	0.08694	0.029
Mof_H 	H 	0.9212	0.7132	0.0788	0.036
Mof_C 	C 	0.8731	0.701	0.1269	0.42
Mof_C 	C 	0.87315	0.8304	0.12685	-0.134
Mof_H 	H 	0.8609	0.56062	0.1391	0.173
Mof_O 	O 	0.8991	0.587	0.1009	-0.08
Mof_O 	O 	0.96365	0.2369	0.53635	-0.454
Mof_O 	O 	0.96392	0.2945	0.53608	-0.463
Mof_O 	O 	0.84999	0.20485	0.65001	-0.534
Mof_O 	O 	0.88464	0.17484	0.61536	-0.481
Mof_O 	O 	0.8774	0.0712	0.6226	-0.532
Mof_C 	C 	0.9533	0.2662	0.5467	0.38
Mof_C 	C 	0.92588	0.2647	0.57412	-0.094
Mof_C 	C 	0.91375	0.2963	0.58625	-0.05
Mof_H 	H 	0.9226	0.3168	0.5774	0.056
Mof_C 	C 	0.88744	0.2974	0.61256	0.034
Mof_C 	C 	0.87545	0.2662	0.62455	-0.044
Mof_H 	H 	0.8585	0.2659	0.6415	0.035
Mof_C 	C 	0.8878	0.2356	0.6122	-0.104
Mof_C 	C 	0.91306	0.2343	0.58694	0.029
Mof_H 	H 	0.9212	0.2132	0.5788	0.038
Mof_C 	C 	0.8731	0.201	0.6269	0.42
Mof_C 	C 	0.87315	0.3304	0.62685	-0.135
Mof_H 	H 	0.8609	0.06062	0.6391	0.17
Mof_O 	O 	0.8991	0.087	0.6009	-0.081
Mof_O 	O 	0.46365	0.7369	0.53635	-0.462
Mof_O 	O 	0.46392	0.7945	0.53608	-0.471
Mof_O 	O 	0.34999	0.70485	0.65001	-0.535
Mof_O 	O 	0.38464	0.67484	0.61536	-0.482
Mof_O 	O 	0.3774	0.5712	0.6226	-0.533
Mof_C 	C 	0.4533	0.7662	0.5467	0.382
Mof_C 	C 	0.42588	0.7647	0.57412	-0.097
Mof_C 	C 	0.41375	0.7963	0.58625	-0.049
Mof_H 	H 	0.4226	0.8168	0.5774	0.054
Mof_C 	C 	0.38744	0.7974	0.61256	0.032
Mof_C 	C 	0.37545	0.7662	0.62455	-0.043
Mof_H 	H 	0.3585	0.7659	0.6415	0.035
Mof_C 	C 	0.3878	0.7356	0.6122	-0.106
Mof_C 	C 	0.41306	0.7343	0.58694	0.03
Mof_H 	H 	0.4212	0.7132	0.5788	0.036
Mof_C 	C 	0.3731	0.701	0.6269	0.42
Mof_C 	C 	0.37315	0.8304	0.62685	-0.134
Mof_H 	H 	0.3609	0.56062	0.6391	0.173
Mof_O 	O 	0.3991	0.587	0.6009	-0.08
Mof_O 	O 	0.46365	0.2369	0.03635	-0.466
Mof_O 	O 	0.46392	0.2945	0.03608	-0.476
Mof_O 	O 	0.34999	0.20485	0.15001	-0.535
Mof_O 	O 	0.38464	0.17484	0.11536	-0.483
Mof_O 	O 	0.3774	0.0712	0.1226	-0.531
Mof_C 	C 	0.4533	0.2662	0.0467	0.382
Mof_C 	C 	0.42588	0.2647	0.07412	-0.1
Mof_C 	C 	0.41375	0.2963	0.08625	-0.047
Mof_H 	H 	0.4226	0.3168	0.0774	0.052
Mof_C 	C 	0.38744	0.2974	0.11256	0.03
Mof_C 	C 	0.37545	0.2662	0.12455	-0.041
Mof_H 	H 	0.3585	0.2659	0.1415	0.034
Mof_C 	C 	0.3878	0.2356	0.1122	-0.108
Mof_C 	C 	0.41306	0.2343	0.08694	0.031
Mof_H 	H 	0.4212	0.2132	0.0788	0.034
Mof_C 	C 	0.3731	0.201	0.1269	0.42
Mof_C 	C 	0.37315	0.3304	0.12685	-0.131
Mof_H 	H 	0.3609	0.06062	0.1391	0.17
Mof_O 	O 	0.3991	0.087	0.1009	-0.081
Mof_C 	C 	0.84529	0.15471	0.1115	0.125
Mof_C 	C 	0.8282	0.1718	0.0796	-0.314
Mof_C 	C 	0.84529	0.65471	0.6115	0.129
Mof_C 	C 	0.8282	0.6718	0.5796	-0.32
Mof_C 	C 	0.34529	0.15471	0.6115	0.127
Mof_C 	C 	0.3282	0.1718	0.5796	-0.319
Mof_C 	C 	0.34529	0.65471	0.1115	0.125
Mof_C 	C 	0.3282	0.6718	0.0796	-0.313
Mof_C 	C 	0.15471	0.84529	0.1115	0.125
Mof_C 	C 	0.1718	0.8282	0.0796	-0.314
Mof_C 	C 	0.15471	0.34529	0.6115	0.127
Mof_C 	C 	0.1718	0.3282	0.5796	-0.319
Mof_C 	C 	0.65471	0.84529	0.6115	0.129
Mof_C 	C 	0.6718	0.8282	0.5796	-0.32
Mof_C 	C 	0.65471	0.34529	0.1115	0.125
Mof_C 	C 	0.6718	0.3282	0.0796	-0.313
Mof_C 	C 	0.15471	0.15471	0.8885	0.129
Mof_C 	C 	0.1718	0.1718	0.9204	-0.325
Mof_C 	C 	0.15471	0.65471	0.3885	0.127
Mof_C 	C 	0.1718	0.6718	0.4204	-0.319
Mof_C 	C 	0.65471	0.15471	0.3885	0.127
Mof_C 	C 	0.6718	0.1718	0.4204	-0.319
Mof_C 	C 	0.65471	0.65471	0.8885	0.131
Mof_C 	C 	0.6718	0.6718	0.9204	-0.326
Mof_C 	C 	0.84529	0.84529	0.8885	0.135
Mof_C 	C 	0.8282	0.8282	0.9204	-0.328
Mof_C 	C 	0.84529	0.34529	0.3885	0.13
Mof_C 	C 	0.8282	0.3282	0.4204	-0.321
Mof_C 	C 	0.34529	0.84529	0.3885	0.13
Mof_C 	C 	0.3282	0.8282	0.4204	-0.321
Mof_C 	C 	0.34529	0.34529	0.8885	0.132
Mof_C 	C 	0.3282	0.3282	0.9204	-0.327
Mof_C 	C 	0.1115	0.84529	0.15471	0.125
Mof_C 	C 	0.0796	0.8282	0.1718	-0.314
Mof_C 	C 	0.1115	0.34529	0.65471	0.125
Mof_C 	C 	0.0796	0.3282	0.6718	-0.313
Mof_C 	C 	0.6115	0.84529	0.65471	0.129
Mof_C 	C 	0.5796	0.8282	0.6718	-0.32
Mof_C 	C 	0.6115	0.34529	0.15471	0.127
Mof_C 	C 	0.5796	0.3282	0.1718	-0.319
Mof_C 	C 	0.1115	0.15471	0.84529	0.125
Mof_C 	C 	0.0796	0.1718	0.8282	-0.314
Mof_C 	C 	0.1115	0.65471	0.34529	0.125
Mof_C 	C 	0.0796	0.6718	0.3282	-0.313
Mof_C 	C 	0.6115	0.15471	0.34529	0.127
Mof_C 	C 	0.5796	0.1718	0.3282	-0.319
Mof_C 	C 	0.6115	0.65471	0.84529	0.129
Mof_C 	C 	0.5796	0.6718	0.8282	-0.32
Mof_C 	C 	0.8885	0.15471	0.15471	0.129
Mof_C 	C 	0.9204	0.1718	0.1718	-0.325
Mof_C 	C 	0.8885	0.65471	0.65471	0.131
Mof_C 	C 	0.9204	0.6718	0.6718	-0.326
Mof_C 	C 	0.3885	0.15471	0.65471	0.127
Mof_C 	C 	0.4204	0.1718	0.6718	-0.319
Mof_C 	C 	0.3885	0.65471	0.15471	0.127
Mof_C 	C 	0.4204	0.6718	0.1718	-0.319
Mof_C 	C 	0.8885	0.84529	0.84529	0.135
Mof_C 	C 	0.9204	0.8282	0.8282	-0.328
Mof_C 	C 	0.8885	0.34529	0.34529	0.132
Mof_C 	C 	0.9204	0.3282	0.3282	-0.327
Mof_C 	C 	0.3885	0.84529	0.34529	0.13
Mof_C 	C 	0.4204	0.8282	0.3282	-0.321
Mof_C 	C 	0.3885	0.34529	0.84529	0.13
Mof_C 	C 	0.4204	0.3282	0.8282	-0.321
Mof_C 	C 	0.15471	0.1115	0.84529	0.125
Mof_C 	C 	0.1718	0.0796	0.8282	-0.314
Mof_C 	C 	0.15471	0.6115	0.34529	0.127
Mof_C 	C 	0.1718	0.5796	0.3282	-0.319
Mof_C 	C 	0.65471	0.1115	0.34529	0.125
Mof_C 	C 	0.6718	0.0796	0.3282	-0.313
Mof_C 	C 	0.65471	0.6115	0.84529	0.129
Mof_C 	C 	0.6718	0.5796	0.8282	-0.32
Mof_C 	C 	0.84529	0.1115	0.15471	0.125
Mof_C 	C 	0.8282	0.0796	0.1718	-0.314
Mof_C 	C 	0.84529	0.6115	0.65471	0.129
Mof_C 	C 	0.8282	0.5796	0.6718	-0.32
Mof_C 	C 	0.34529	0.1115	0.65471	0.125
Mof_C 	C 	0.3282	0.0796	0.6718	-0.313
Mof_C 	C 	0.34529	0.6115	0.15471	0.127
Mof_C 	C 	0.3282	0.5796	0.1718	-0.319
Mof_C 	C 	0.15471	0.8885	0.15471	0.129
Mof_C 	C 	0.1718	0.9204	0.1718	-0.325
Mof_C 	C 	0.15471	0.3885	0.65471	0.127
Mof_C 	C 	0.1718	0.4204	0.6718	-0.319
Mof_C 	C 	0.65471	0.8885	0.65471	0.131
Mof_C 	C 	0.6718	0.9204	0.6718	-0.326
Mof_C 	C 	0.65471	0.3885	0.15471	0.127
Mof_C 	C 	0.6718	0.4204	0.1718	-0.319
Mof_C 	C 	0.84529	0.8885	0.84529	0.135
Mof_C 	C 	0.8282	0.9204	0.8282	-0.328
Mof_C 	C 	0.84529	0.3885	0.34529	0.13
Mof_C 	C 	0.8282	0.4204	0.3282	-0.321
Mof_C 	C 	0.34529	0.8885	0.34529	0.132
Mof_C 	C 	0.3282	0.9204	0.3282	-0.327
Mof_C 	C 	0.34529	0.3885	0.84529	0.13
Mof_C 	C 	0.3282	0.4204	0.8282	-0.321
Mof_C 	C 	0.15471	0.84529	0.8885	0.132
Mof_C 	C 	0.1718	0.8282	0.9204	-0.327
Mof_C 	C 	0.15471	0.34529	0.3885	0.127
Mof_C 	C 	0.1718	0.3282	0.4204	-0.319
Mof_C 	C 	0.65471	0.84529	0.3885	0.129
Mof_C 	C 	0.6718	0.8282	0.4204	-0.321
Mof_C 	C 	0.65471	0.34529	0.8885	0.132
Mof_C 	C 	0.6718	0.3282	0.9204	-0.326
Mof_C 	C 	0.84529	0.15471	0.8885	0.132
Mof_C 	C 	0.8282	0.1718	0.9204	-0.327
Mof_C 	C 	0.84529	0.65471	0.3885	0.129
Mof_C 	C 	0.8282	0.6718	0.4204	-0.321
Mof_C 	C 	0.34529	0.15471	0.3885	0.127
Mof_C 	C 	0.3282	0.1718	0.4204	-0.319
Mof_C 	C 	0.34529	0.65471	0.8885	0.132
Mof_C 	C 	0.3282	0.6718	0.9204	-0.326
Mof_C 	C 	0.15471	0.15471	0.1115	0.122
Mof_C 	C 	0.1718	0.1718	0.0796	-0.312
Mof_C 	C 	0.15471	0.65471	0.6115	0.127
Mof_C 	C 	0.1718	0.6718	0.5796	-0.319
Mof_C 	C 	0.65471	0.15471	0.6115	0.127
Mof_C 	C 	0.6718	0.1718	0.5796	-0.319
Mof_C 	C 	0.65471	0.65471	0.1115	0.125
Mof_C 	C 	0.6718	0.6718	0.0796	-0.313
Mof_C 	C 	0.84529	0.84529	0.1115	0.128
Mof_C 	C 	0.8282	0.8282	0.0796	-0.315
Mof_C 	C 	0.84529	0.34529	0.6115	0.13
Mof_C 	C 	0.8282	0.3282	0.5796	-0.321
Mof_C 	C 	0.34529	0.84529	0.6115	0.13
Mof_C 	C 	0.3282	0.8282	0.5796	-0.321
Mof_C 	C 	0.34529	0.34529	0.1115	0.125
Mof_C 	C 	0.3282	0.3282	0.0796	-0.314
Mof_C 	C 	0.84529	0.1115	0.84529	0.128
Mof_C 	C 	0.8282	0.0796	0.8282	-0.315
Mof_C 	C 	0.84529	0.6115	0.34529	0.13
Mof_C 	C 	0.8282	0.5796	0.3282	-0.321
Mof_C 	C 	0.34529	0.1115	0.34529	0.125
Mof_C 	C 	0.3282	0.0796	0.3282	-0.314
Mof_C 	C 	0.34529	0.6115	0.84529	0.13
Mof_C 	C 	0.3282	0.5796	0.8282	-0.321
Mof_C 	C 	0.15471	0.1115	0.15471	0.122
Mof_C 	C 	0.1718	0.0796	0.1718	-0.312
Mof_C 	C 	0.15471	0.6115	0.65471	0.127
Mof_C 	C 	0.1718	0.5796	0.6718	-0.319
Mof_C 	C 	0.65471	0.1115	0.65471	0.125
Mof_C 	C 	0.6718	0.0796	0.6718	-0.313
Mof_C 	C 	0.65471	0.6115	0.15471	0.127
Mof_C 	C 	0.6718	0.5796	0.1718	-0.319
Mof_C 	C 	0.15471	0.8885	0.84529	0.132
Mof_C 	C 	0.1718	0.9204	0.8282	-0.327
Mof_C 	C 	0.15471	0.3885	0.34529	0.127
Mof_C 	C 	0.1718	0.4204	0.3282	-0.319
Mof_C 	C 	0.65471	0.8885	0.34529	0.132
Mof_C 	C 	0.6718	0.9204	0.3282	-0.326
Mof_C 	C 	0.65471	0.3885	0.84529	0.129
Mof_C 	C 	0.6718	0.4204	0.8282	-0.321
Mof_C 	C 	0.84529	0.8885	0.15471	0.132
Mof_C 	C 	0.8282	0.9204	0.1718	-0.327
Mof_C 	C 	0.84529	0.3885	0.65471	0.129
Mof_C 	C 	0.8282	0.4204	0.6718	-0.321
Mof_C 	C 	0.34529	0.8885	0.65471	0.132
Mof_C 	C 	0.3282	0.9204	0.6718	-0.326
Mof_C 	C 	0.34529	0.3885	0.15471	0.127
Mof_C 	C 	0.3282	0.4204	0.1718	-0.319
Mof_C 	C 	0.1115	0.15471	0.15471	0.122
Mof_C 	C 	0.0796	0.1718	0.1718	-0.312
Mof_C 	C 	0.1115	0.65471	0.65471	0.125
Mof_C 	C 	0.0796	0.6718	0.6718	-0.313
Mof_C 	C 	0.6115	0.15471	0.65471	0.127
Mof_C 	C 	0.5796	0.1718	0.6718	-0.319
Mof_C 	C 	0.6115	0.65471	0.15471	0.127
Mof_C 	C 	0.5796	0.6718	0.1718	-0.319
Mof_C 	C 	0.1115	0.84529	0.84529	0.128
Mof_C 	C 	0.0796	0.8282	0.8282	-0.315
Mof_C 	C 	0.1115	0.34529	0.34529	0.125
Mof_C 	C 	0.0796	0.3282	0.3282	-0.314
Mof_C 	C 	0.6115	0.84529	0.34529	0.13
Mof_C 	C 	0.5796	0.8282	0.3282	-0.321
Mof_C 	C 	0.6115	0.34529	0.84529	0.13
Mof_C 	C 	0.5796	0.3282	0.8282	-0.321
Mof_C 	C 	0.8885	0.15471	0.84529	0.132
Mof_C 	C 	0.9204	0.1718	0.8282	-0.327
Mof_C 	C 	0.8885	0.65471	0.34529	0.132
Mof_C 	C 	0.9204	0.6718	0.3282	-0.326
Mof_C 	C 	0.3885	0.15471	0.34529	0.127
Mof_C 	C 	0.4204	0.1718	0.3282	-0.319
Mof_C 	C 	0.3885	0.65471	0.84529	0.129
Mof_C 	C 	0.4204	0.6718	0.8282	-0.321
Mof_C 	C 	0.8885	0.84529	0.15471	0.132
Mof_C 	C 	0.9204	0.8282	0.1718	-0.327
Mof_C 	C 	0.8885	0.34529	0.65471	0.132
Mof_C 	C 	0.9204	0.3282	0.6718	-0.326
Mof_C 	C 	0.3885	0.84529	0.65471	0.129
Mof_C 	C 	0.4204	0.8282	0.6718	-0.321
Mof_C 	C 	0.3885	0.34529	0.15471	0.127
Mof_C 	C 	0.4204	0.3282	0.1718	-0.319
_end
