# CIF file generated by openbabel 2.4.1, see http://openbabel.sf.net
data_I
_chemical_name_common 'image0'
_cell_length_a 16.5843
_cell_length_b 16.599
_cell_length_c 22.2252
_cell_angle_alpha 90
_cell_angle_beta 90
_cell_angle_gamma 90
_space_group_name_H-M_alt 'P 1'
_space_group_name_Hall 'P 1'
loop_
    _symmetry_equiv_pos_as_xyz
    x,y,z
loop_
    _atom_site_label
    _atom_site_type_symbol
    _atom_site_fract_x
    _atom_site_fract_y
    _atom_site_fract_z
    _atom_site_occupancy
    O1      O    0.08511   0.58394   0.45117   1.000
    C1      C    0.20110   0.70200   0.44630   1.000
    H1      H    0.18110   0.68070   0.40950   1.000
    C2      C    0.25900   0.76170   0.44430   1.000
    H2      H    0.27780   0.78290   0.40720   1.000
    N1      N    0.05930   0.44030   0.06390   1.000
    C3      C    0.04710   0.55190   0.31240   1.000
    H3      H    0.08010   0.59050   0.33210   1.000
    C4      C    0.04750   0.54920   0.25330   1.000
    H4      H    0.08330   0.58400   0.23230   1.000
    C5      C    0.03510   0.44380   0.12530   1.000
    C6      C    0.04750   0.36130   0.15470   1.000
    H5      H    0.03630   0.34560   0.19490   1.000
    C7      C    0.08030   0.31310   0.10670   1.000
    H6      H    0.08930   0.25670   0.10860   1.000
    C8      C    0.09870   0.36670   0.05190   1.000
    O2      O    0.91489   0.41606   0.45117   1.000
    C9      C    0.79890   0.29800   0.44630   1.000
    H7      H    0.81890   0.31930   0.40950   1.000
    C10     C    0.74100   0.23830   0.44430   1.000
    H8      H    0.72220   0.21710   0.40720   1.000
    N2      N    0.94070   0.55970   0.06390   1.000
    C11     C    0.95290   0.44810   0.31240   1.000
    H9      H    0.91990   0.40950   0.33210   1.000
    C12     C    0.95250   0.45080   0.25330   1.000
    H10     H    0.91670   0.41600   0.23230   1.000
    C13     C    0.96490   0.55620   0.12530   1.000
    C14     C    0.95250   0.63870   0.15470   1.000
    H11     H    0.96370   0.65440   0.19490   1.000
    C15     C    0.91970   0.68690   0.10670   1.000
    H12     H    0.91070   0.74330   0.10860   1.000
    C16     C    0.90130   0.63330   0.05190   1.000
    O3      O    0.91489   0.58394   0.54883   1.000
    C17     C    0.79890   0.70200   0.55370   1.000
    H13     H    0.81890   0.68070   0.59050   1.000
    C18     C    0.74100   0.76170   0.55570   1.000
    H14     H    0.72220   0.78290   0.59280   1.000
    N3      N    0.94070   0.44030   0.93610   1.000
    C19     C    0.95290   0.55190   0.68760   1.000
    H15     H    0.91990   0.59050   0.66790   1.000
    C20     C    0.95250   0.54920   0.74670   1.000
    H16     H    0.91670   0.58400   0.76770   1.000
    C21     C    0.96490   0.44380   0.87470   1.000
    C22     C    0.95250   0.36130   0.84530   1.000
    H17     H    0.96370   0.34560   0.80510   1.000
    C23     C    0.91970   0.31310   0.89330   1.000
    H18     H    0.91070   0.25670   0.89140   1.000
    C24     C    0.90130   0.36670   0.94810   1.000
    O4      O    0.08511   0.41606   0.54883   1.000
    C25     C    0.20110   0.29800   0.55370   1.000
    H19     H    0.18110   0.31930   0.59050   1.000
    C26     C    0.25900   0.23830   0.55570   1.000
    H20     H    0.27780   0.21710   0.59280   1.000
    N4      N    0.05930   0.55970   0.93610   1.000
    C27     C    0.04710   0.44810   0.68760   1.000
    H21     H    0.08010   0.40950   0.66790   1.000
    C28     C    0.04750   0.45080   0.74670   1.000
    H22     H    0.08330   0.41600   0.76770   1.000
    C29     C    0.03510   0.55620   0.87470   1.000
    C30     C    0.04750   0.63870   0.84530   1.000
    H23     H    0.03630   0.65440   0.80510   1.000
    C31     C    0.08030   0.68690   0.89330   1.000
    H24     H    0.08930   0.74330   0.89140   1.000
    C32     C    0.09870   0.63330   0.94810   1.000
    O5      O    0.91489   0.41606   0.54883   1.000
    C33     C    0.79890   0.29800   0.55370   1.000
    H25     H    0.81890   0.31930   0.59050   1.000
    C34     C    0.74100   0.23830   0.55570   1.000
    H26     H    0.72220   0.21710   0.59280   1.000
    N5      N    0.94070   0.55970   0.93610   1.000
    C35     C    0.95290   0.44810   0.68760   1.000
    H27     H    0.91990   0.40950   0.66790   1.000
    C36     C    0.95250   0.45080   0.74670   1.000
    H28     H    0.91670   0.41600   0.76770   1.000
    C37     C    0.96490   0.55620   0.87470   1.000
    C38     C    0.95250   0.63870   0.84530   1.000
    H29     H    0.96370   0.65440   0.80510   1.000
    C39     C    0.91970   0.68690   0.89330   1.000
    H30     H    0.91070   0.74330   0.89140   1.000
    C40     C    0.90130   0.63330   0.94810   1.000
    O6      O    0.08511   0.58394   0.54883   1.000
    C41     C    0.20110   0.70200   0.55370   1.000
    H31     H    0.18110   0.68070   0.59050   1.000
    C42     C    0.25900   0.76170   0.55570   1.000
    H32     H    0.27780   0.78290   0.59280   1.000
    N6      N    0.05930   0.44030   0.93610   1.000
    C43     C    0.04710   0.55190   0.68760   1.000
    H33     H    0.08010   0.59050   0.66790   1.000
    C44     C    0.04750   0.54920   0.74670   1.000
    H34     H    0.08330   0.58400   0.76770   1.000
    C45     C    0.03510   0.44380   0.87470   1.000
    C46     C    0.04750   0.36130   0.84530   1.000
    H35     H    0.03630   0.34560   0.80510   1.000
    C47     C    0.08030   0.31310   0.89330   1.000
    H36     H    0.08930   0.25670   0.89140   1.000
    C48     C    0.09870   0.36670   0.94810   1.000
    O7      O    0.08511   0.41606   0.45117   1.000
    C49     C    0.20110   0.29800   0.44630   1.000
    H37     H    0.18110   0.31930   0.40950   1.000
    C50     C    0.25900   0.23830   0.44430   1.000
    H38     H    0.27780   0.21710   0.40720   1.000
    N7      N    0.05930   0.55970   0.06390   1.000
    C51     C    0.04710   0.44810   0.31240   1.000
    H39     H    0.08010   0.40950   0.33210   1.000
    C52     C    0.04750   0.45080   0.25330   1.000
    H40     H    0.08330   0.41600   0.23230   1.000
    C53     C    0.03510   0.55620   0.12530   1.000
    C54     C    0.04750   0.63870   0.15470   1.000
    H41     H    0.03630   0.65440   0.19490   1.000
    C55     C    0.08030   0.68690   0.10670   1.000
    H42     H    0.08930   0.74330   0.10860   1.000
    C56     C    0.09870   0.63330   0.05190   1.000
    O8      O    0.91489   0.58394   0.45117   1.000
    C57     C    0.79890   0.70200   0.44630   1.000
    H43     H    0.81890   0.68070   0.40950   1.000
    C58     C    0.74100   0.76170   0.44430   1.000
    H44     H    0.72220   0.78290   0.40720   1.000
    N8      N    0.94070   0.44030   0.06390   1.000
    C59     C    0.95290   0.55190   0.31240   1.000
    H45     H    0.91990   0.59050   0.33210   1.000
    C60     C    0.95250   0.54920   0.25330   1.000
    H46     H    0.91670   0.58400   0.23230   1.000
    C61     C    0.96490   0.44380   0.12530   1.000
    C62     C    0.95250   0.36130   0.15470   1.000
    H47     H    0.96370   0.34560   0.19490   1.000
    C63     C    0.91970   0.31310   0.10670   1.000
    H48     H    0.91070   0.25670   0.10860   1.000
    C64     C    0.90130   0.36670   0.05190   1.000
    Zn1     Zn   0.00000   0.50000   0.43483   1.000
    N9      N    0.00000   0.50000   0.34750   1.000
    C65     C    0.00000   0.50000   0.22100   1.000
    C66     C    0.00000   0.50000   0.15660   1.000
    Zn2     Zn   0.00000   0.50000   0.56517   1.000
    N10     N    0.00000   0.50000   0.65250   1.000
    C67     C    0.00000   0.50000   0.77900   1.000
    C68     C    0.00000   0.50000   0.84340   1.000
    Al1     Al   0.50000   0.00000   0.50000   1.000
    C69     C    0.12800   0.35600   0.00000   1.000
    C70     C    0.87200   0.64400   0.00000   1.000
    C71     C    0.87200   0.35600   0.00000   1.000
    C72     C    0.12800   0.64400   0.00000   1.000
    N11     N    0.50000   0.88060   0.50000   1.000
    N12     N    0.50000   0.11940   0.50000   1.000
    N13     N    0.38030   0.00000   0.50000   1.000
    N14     N    0.61970   0.00000   0.50000   1.000
    C73     C    0.10880   0.60760   0.50000   1.000
    C74     C    0.17090   0.67190   0.50000   1.000
    C75     C    0.28900   0.78970   0.50000   1.000
    C76     C    0.35420   0.85450   0.50000   1.000
    C77     C    0.32880   0.93350   0.50000   1.000
    C78     C    0.24720   0.95790   0.50000   1.000
    H49     H    0.20120   0.92380   0.50000   1.000
    C79     C    0.43410   0.82900   0.50000   1.000
    C80     C    0.45650   0.74680   0.50000   1.000
    H50     H    0.42170   0.70130   0.50000   1.000
    C81     C    0.89120   0.39240   0.50000   1.000
    C82     C    0.82910   0.32810   0.50000   1.000
    C83     C    0.71100   0.21030   0.50000   1.000
    C84     C    0.64580   0.14550   0.50000   1.000
    C85     C    0.67120   0.06650   0.50000   1.000
    C86     C    0.75280   0.04210   0.50000   1.000
    H51     H    0.79880   0.07620   0.50000   1.000
    C87     C    0.56590   0.17100   0.50000   1.000
    C88     C    0.54350   0.25320   0.50000   1.000
    H52     H    0.57830   0.29870   0.50000   1.000
    C89     C    0.89120   0.60760   0.50000   1.000
    C90     C    0.82910   0.67190   0.50000   1.000
    C91     C    0.71100   0.78970   0.50000   1.000
    C92     C    0.64580   0.85450   0.50000   1.000
    C93     C    0.67120   0.93350   0.50000   1.000
    C94     C    0.75280   0.95790   0.50000   1.000
    H53     H    0.79880   0.92380   0.50000   1.000
    C95     C    0.56590   0.82900   0.50000   1.000
    C96     C    0.54350   0.74680   0.50000   1.000
    H54     H    0.57830   0.70130   0.50000   1.000
    C97     C    0.10880   0.39240   0.50000   1.000
    C98     C    0.17090   0.32810   0.50000   1.000
    C99     C    0.28900   0.21030   0.50000   1.000
    C100    C    0.35420   0.14550   0.50000   1.000
    C101    C    0.32880   0.06650   0.50000   1.000
    C102    C    0.24720   0.04210   0.50000   1.000
    H55     H    0.20120   0.07620   0.50000   1.000
    C103    C    0.43410   0.17100   0.50000   1.000
    C104    C    0.45650   0.25320   0.50000   1.000
    H56     H    0.42170   0.29870   0.50000   1.000
    Zn3     Zn   0.00000   0.50000   0.00000   1.000
