data_functionalizedCrystal
_audit_creation_method	'EQeq! by Chris Wilmer'
_symmetry_space_group_name_H-M	'P1'
_symmetry_Int_Tables_number	1
_symmetry_cell_setting	triclinic
loop_
_symmetry_equiv_pos_as_xyz
  x,y,z
_cell_length_a	7.4474
_cell_length_b	7.4474
_cell_length_c	13.05
_cell_angle_alpha	90
_cell_angle_beta	90
_cell_angle_gamma	90
loop_
_atom_site_label
_atom_site_type_symbol
_atom_site_fract_x
_atom_site_fract_y
_atom_site_fract_z
_atom_site_charge
Mof_Zn	Zn	4.92752e-33	0	0.75	1.111
Mof_Zn	Zn	-2.71703e-33	-4.35954e-33	0.25	1.102
Mof_Ni	Ni	0.5	0	-0	0.988
Mof_Ni	Ni	1.20041e-32	0.5	0.5	1.04
Mof_C 	C 	0.6772	0	0.89998	-0.189
Mof_C 	C 	0.3228	0	0.89998	-0.226
Mof_C 	C 	-6.0912e-33	0.6772	0.39998	-0.271
Mof_C 	C 	2.62788e-33	0.3228	0.39998	-0.307
Mof_C 	C 	0.3228	-2.17977e-33	0.10002	-0.349
Mof_C 	C 	0.6772	-2.17977e-33	0.10002	-0.313
Mof_C 	C 	3.94215e-33	0.6772	0.60002	-0.262
Mof_C 	C 	1.26612e-32	0.3228	0.60002	-0.299
Mof_N 	N 	0.7888	-1.74382e-32	0.83985	-0.22
Mof_N 	N 	0.2112	-1.74382e-32	0.83985	-0.288
Mof_N 	N 	-1.08458e-32	0.7888	0.33985	-0.221
Mof_N 	N 	-1.08458e-32	0.2112	0.33985	-0.29
Mof_N 	N 	0.2112	-4.35954e-33	0.16015	-0.289
Mof_N 	N 	0.7888	-4.35954e-33	0.16015	-0.222
Mof_N 	N 	-1.31009e-32	0.7888	0.66015	-0.214
Mof_N 	N 	-4.38187e-33	0.2112	0.66015	-0.281
_end
