data_functionalizedCrystal
_audit_creation_method	'EQeq! by Chris Wilmer'
_symmetry_space_group_name_H-M	'P1'
_symmetry_Int_Tables_number	1
_symmetry_cell_setting	triclinic
loop_
_symmetry_equiv_pos_as_xyz
  x,y,z
_cell_length_a	21.584
_cell_length_b	16.652
_cell_length_c	18.176
_cell_angle_alpha	90
_cell_angle_beta	102.55
_cell_angle_gamma	90
loop_
_atom_site_label
_atom_site_type_symbol
_atom_site_fract_x
_atom_site_fract_y
_atom_site_fract_z
_atom_site_charge
Mof_C 	C 	0.3845	0.071	0.7	0.099
Mof_H 	H 	0.3653	0.1222	0.6961	-0.04
Mof_N 	N 	0.251	0.887	0.7143	-0.099
Mof_C 	C 	0.2333	0.964	0.699	0.061
Mof_H 	H 	0.1894	0.9765	0.6902	-0.001
Mof_C 	C 	0.2746	0.0253	0.695	-0.02
Mof_H 	H 	0.2601	0.0789	0.6851	0.022
Mof_C 	C 	0.3388	0.006	0.705	0.046
Mof_C 	C 	0.3585	0.927	0.721	-0.056
Mof_H 	H 	0.4021	0.913	0.7281	0.043
Mof_C 	C 	0.3142	0.8695	0.726	-0.042
Mof_H 	H 	0.3279	0.816	0.7388	0.031
Mof_C 	C 	0.4372	0.074	0.7	-0.177
Mof_H 	H 	0.4525	0.02	0.7007	0.06
Mof_N 	N 	0.598	0.2236	0.702	-0.084
Mof_C 	C 	0.6038	0.1444	0.7206	-0.02
Mof_H 	H 	0.6451	0.1217	0.7352	0.023
Mof_C 	C 	0.5523	0.0967	0.719	-0.07
Mof_H 	H 	0.5583	0.0415	0.7315	0.048
Mof_C 	C 	0.491	0.1275	0.6992	-0.007
Mof_C 	C 	0.4836	0.2086	0.6796	0.002
Mof_H 	H 	0.4428	0.2324	0.6644	0.025
Mof_C 	C 	0.5379	0.2522	0.6833	0.037
Mof_H 	H 	0.5331	0.3077	0.6717	0.004
Mof_C 	C 	0.4052	0.0425	0.71	-0.171
Mof_H 	H 	0.3929	0.0967	0.7148	0.089
Mof_N 	N 	0.2488	0.8856	0.7134	-0.076
Mof_C 	C 	0.2465	0.9655	0.7239	-0.043
Mof_H 	H 	0.2078	0.9863	0.733	0.033
Mof_C 	C 	0.2934	0.0198	0.723	-0.077
Mof_H 	H 	0.2875	0.0756	0.7304	0.051
Mof_C 	C 	0.3507	0.9893	0.7106	0.013
Mof_C 	C 	0.3548	0.9058	0.6999	-0.016
Mof_H 	H 	0.3932	0.8838	0.6911	0.022
Mof_C 	C 	0.305	0.8557	0.7019	0.049
Mof_H 	H 	0.3095	0.7996	0.6953	0.007
Mof_C 	C 	0.4565	0.0405	0.7058	0.121
Mof_H 	H 	0.4723	0.9874	0.7036	-0.042
Mof_N 	N 	0.5946	0.2242	0.6985	-0.104
Mof_C 	C 	0.6089	0.1446	0.6952	0.045
Mof_H 	H 	0.6504	0.1299	0.6907	0.004
Mof_C 	C 	0.5659	0.0855	0.6983	-0.048
Mof_H 	H 	0.5784	0.0309	0.6972	0.03
Mof_C 	C 	0.5049	0.1039	0.703	0.083
Mof_C 	C 	0.4892	0.1849	0.707	-0.082
Mof_H 	H 	0.4479	0.2005	0.7118	0.057
Mof_C 	C 	0.5344	0.2413	0.7037	-0.022
Mof_H 	H 	0.5229	0.2962	0.7052	0.02
Mof_S 	S 	0.99708	0.9504	0.8639	0.038
Mof_C 	C 	0.0432	0.9441	0.8001	-0.103
Mof_C 	C 	0.0235	0.9968	0.7408	0.013
Mof_H 	H 	0.0438	0.0025	0.6996	0.038
Mof_C 	C 	0.9699	0.0406	0.7485	-0.076
Mof_H 	H 	0.9501	0.0805	0.7139	0.058
Mof_C 	C 	0.9492	0.0192	0.812	0.001
Mof_C 	C 	0.0987	0.8897	0.8124	0.361
Mof_O 	O 	0.1316	0.8885	0.7626	-0.44
Mof_O 	O 	0.1032	0.846	0.8721	-0.43
Mof_S 	S 	0.84991	0.1284	0.784	0.037
Mof_C 	C 	0.7941	0.1279	0.8384	-0.157
Mof_C 	C 	0.8106	0.0713	0.8932	0.062
Mof_H 	H 	0.7842	0.0575	0.9268	0.02
Mof_C 	C 	0.8699	0.0351	0.8962	-0.1
Mof_H 	H 	0.8908	0.0013	0.936	0.076
Mof_C 	C 	0.894	0.0544	0.8341	0.014
Mof_C 	C 	0.7429	0.1865	0.8245	0.473
Mof_O 	O 	0.7073	0.1884	0.871	-0.482
Mof_O 	O 	0.7365	0.2274	0.77	-0.491
Mof_S 	S 	0.1932	0.7635	0.4377	0.027
Mof_C 	C 	0.1505	0.8225	0.4846	-0.078
Mof_C 	C 	0.1149	0.8762	0.433	0.007
Mof_H 	H 	0.0878	0.9155	0.4472	0.042
Mof_C 	C 	0.1225	0.867	0.358	-0.077
Mof_H 	H 	0.1003	0.8973	0.3162	0.062
Mof_C 	C 	0.1663	0.8086	0.3542	0.004
Mof_C 	C 	0.1571	0.8133	0.567	0.298
Mof_O 	O 	0.1904	0.7621	0.6023	-0.38
Mof_O 	O 	0.1235	0.8626	0.5994	-0.345
Mof_S 	S 	0.14527	0.8141	0.198	0.029
Mof_C 	C 	0.1936	0.7604	0.1539	-0.109
Mof_C 	C 	0.2394	0.7218	0.2068	0.021
Mof_H 	H 	0.2703	0.6874	0.1934	0.031
Mof_C 	C 	0.2368	0.7376	0.2826	-0.085
Mof_H 	H 	0.2663	0.718	0.3254	0.06
Mof_C 	C 	0.1849	0.7859	0.2851	0.006
Mof_C 	C 	0.1849	0.7611	0.0732	0.339
Mof_O 	O 	0.1457	0.8094	0.0356	-0.375
Mof_O 	O 	0.2131	0.7136	0.0415	-0.384
Mof_C 	C 	0.3814	0.0295	0.9123	-0.075
Mof_H 	H 	0.3688	0.0841	0.9135	0.062
Mof_C 	C 	0.4335	0.0186	0.902	-0.081
Mof_H 	H 	0.4428	0.9642	0.8927	0.056
Mof_C 	C 	0.2298	0.9334	0.9364	0.095
Mof_H 	H 	0.1888	0.9495	0.9417	-0.001
Mof_C 	C 	0.2723	0.9909	0.9305	-0.167
Mof_H 	H 	0.2608	0.0459	0.9312	0.099
Mof_C 	C 	0.3339	0.9694	0.9235	0.113
Mof_C 	C 	0.3435	0.8845	0.9235	-0.175
Mof_H 	H 	0.3833	0.8647	0.917	0.088
Mof_C 	C 	0.2997	0.8326	0.9319	0.121
Mof_H 	H 	0.3105	0.7772	0.9359	-0.016
Mof_C 	C 	0.5932	0.1039	0.9094	0.109
Mof_H 	H 	0.6348	0.084	0.9115	-0.002
Mof_C 	C 	0.5471	0.051	0.9014	-0.18
Mof_H 	H 	0.5559	0.9957	0.8957	0.089
Mof_C 	C 	0.4857	0.0752	0.9011	0.124
Mof_C 	C 	0.4769	0.1577	0.903	-0.171
Mof_H 	H 	0.4353	0.1786	0.8986	0.094
Mof_C 	C 	0.5254	0.2077	0.9108	0.102
Mof_H 	H 	0.5172	0.2635	0.9138	0.007
Mof_Co	Co	0.17295	0.80461	0.7067	1.167
Mof_Co	Co	0.16563	0.7655	0.92982	1.169
Mof_N 	N 	0.2426	0.8533	0.935	-0.238
Mof_N 	N 	0.5865	0.1838	0.9149	-0.23
Mof_C 	C 	0.8845	0.571	0.7	0.1
Mof_H 	H 	0.8653	0.6222	0.6961	-0.039
Mof_N 	N 	0.751	0.387	0.7143	-0.098
Mof_C 	C 	0.7333	0.464	0.699	0.063
Mof_H 	H 	0.6894	0.4765	0.6902	-0
Mof_C 	C 	0.7746	0.5253	0.695	-0.021
Mof_H 	H 	0.7601	0.5789	0.6851	0.023
Mof_C 	C 	0.8388	0.506	0.705	0.05
Mof_C 	C 	0.8585	0.427	0.721	-0.055
Mof_H 	H 	0.9021	0.413	0.7281	0.045
Mof_C 	C 	0.8142	0.3695	0.726	-0.041
Mof_H 	H 	0.8279	0.316	0.7388	0.032
Mof_C 	C 	0.9372	0.574	0.7	-0.174
Mof_H 	H 	0.9525	0.52	0.7007	0.058
Mof_N 	N 	0.098	0.7236	0.702	-0.084
Mof_C 	C 	0.1038	0.6444	0.7206	-0.02
Mof_H 	H 	0.1451	0.6217	0.7352	0.023
Mof_C 	C 	0.0523	0.5967	0.719	-0.07
Mof_H 	H 	0.0583	0.5415	0.7315	0.047
Mof_C 	C 	0.991	0.6275	0.6992	-0.008
Mof_C 	C 	0.9836	0.7086	0.6796	0.003
Mof_H 	H 	0.9428	0.7324	0.6644	0.025
Mof_C 	C 	0.0379	0.7522	0.6833	0.036
Mof_H 	H 	0.0331	0.8077	0.6717	0.004
Mof_C 	C 	0.9052	0.5425	0.71	-0.173
Mof_H 	H 	0.8929	0.5967	0.7148	0.088
Mof_N 	N 	0.7488	0.3856	0.7134	-0.076
Mof_C 	C 	0.7465	0.4655	0.7239	-0.042
Mof_H 	H 	0.7078	0.4863	0.733	0.033
Mof_C 	C 	0.7934	0.5198	0.723	-0.078
Mof_H 	H 	0.7875	0.5756	0.7304	0.051
Mof_C 	C 	0.8507	0.4893	0.7106	0.011
Mof_C 	C 	0.8548	0.4058	0.6999	-0.016
Mof_H 	H 	0.8932	0.3838	0.6911	0.021
Mof_C 	C 	0.805	0.3557	0.7019	0.049
Mof_H 	H 	0.8095	0.2996	0.6953	0.007
Mof_C 	C 	0.9565	0.5405	0.7058	0.12
Mof_H 	H 	0.9723	0.4874	0.7036	-0.04
Mof_N 	N 	0.0946	0.7242	0.6985	-0.104
Mof_C 	C 	0.1089	0.6446	0.6952	0.045
Mof_H 	H 	0.1504	0.6299	0.6907	0.004
Mof_C 	C 	0.0659	0.5855	0.6983	-0.048
Mof_H 	H 	0.0784	0.5309	0.6972	0.03
Mof_C 	C 	0.0049	0.6039	0.703	0.083
Mof_C 	C 	0.9892	0.6849	0.707	-0.082
Mof_H 	H 	0.9479	0.7005	0.7118	0.056
Mof_C 	C 	0.0344	0.7413	0.7037	-0.022
Mof_H 	H 	0.0229	0.7962	0.7052	0.021
Mof_S 	S 	0.49708	0.4504	0.8639	0.038
Mof_C 	C 	0.5432	0.4441	0.8001	-0.104
Mof_C 	C 	0.5235	0.4968	0.7408	0.017
Mof_H 	H 	0.5438	0.5025	0.6996	0.036
Mof_C 	C 	0.4699	0.5406	0.7485	-0.079
Mof_H 	H 	0.4501	0.5805	0.7139	0.059
Mof_C 	C 	0.4492	0.5192	0.812	0.001
Mof_C 	C 	0.5987	0.3897	0.8124	0.362
Mof_O 	O 	0.6316	0.3885	0.7626	-0.44
Mof_O 	O 	0.6032	0.346	0.8721	-0.429
Mof_S 	S 	0.34991	0.6284	0.784	0.037
Mof_C 	C 	0.2941	0.6279	0.8384	-0.157
Mof_C 	C 	0.3106	0.5713	0.8932	0.062
Mof_H 	H 	0.2842	0.5575	0.9268	0.02
Mof_C 	C 	0.3699	0.5351	0.8962	-0.1
Mof_H 	H 	0.3908	0.5013	0.936	0.076
Mof_C 	C 	0.394	0.5544	0.8341	0.014
Mof_C 	C 	0.2429	0.6865	0.8245	0.473
Mof_O 	O 	0.2073	0.6884	0.871	-0.482
Mof_O 	O 	0.2365	0.7274	0.77	-0.491
Mof_S 	S 	0.6932	0.2635	0.4377	0.027
Mof_C 	C 	0.6505	0.3225	0.4846	-0.077
Mof_C 	C 	0.6149	0.3762	0.433	0.007
Mof_H 	H 	0.5878	0.4155	0.4472	0.042
Mof_C 	C 	0.6225	0.367	0.358	-0.077
Mof_H 	H 	0.6003	0.3973	0.3162	0.062
Mof_C 	C 	0.6663	0.3086	0.3542	0.004
Mof_C 	C 	0.6571	0.3133	0.567	0.298
Mof_O 	O 	0.6904	0.2621	0.6023	-0.38
Mof_O 	O 	0.6235	0.3626	0.5994	-0.345
Mof_S 	S 	0.64527	0.3141	0.198	0.03
Mof_C 	C 	0.6936	0.2604	0.1539	-0.109
Mof_C 	C 	0.7394	0.2218	0.2068	0.021
Mof_H 	H 	0.7703	0.1874	0.1934	0.031
Mof_C 	C 	0.7368	0.2376	0.2826	-0.085
Mof_H 	H 	0.7663	0.218	0.3254	0.06
Mof_C 	C 	0.6849	0.2859	0.2851	0.006
Mof_C 	C 	0.6849	0.2611	0.0732	0.339
Mof_O 	O 	0.6457	0.3094	0.0356	-0.375
Mof_O 	O 	0.7131	0.2136	0.0415	-0.384
Mof_C 	C 	0.8814	0.5295	0.9123	-0.073
Mof_H 	H 	0.8688	0.5841	0.9135	0.061
Mof_C 	C 	0.9335	0.5186	0.902	-0.085
Mof_H 	H 	0.9428	0.4642	0.8927	0.058
Mof_C 	C 	0.7298	0.4334	0.9364	0.094
Mof_H 	H 	0.6888	0.4495	0.9417	-0.001
Mof_C 	C 	0.7723	0.4909	0.9305	-0.165
Mof_H 	H 	0.7608	0.5459	0.9312	0.097
Mof_C 	C 	0.8339	0.4694	0.9235	0.112
Mof_C 	C 	0.8435	0.3845	0.9235	-0.174
Mof_H 	H 	0.8833	0.3647	0.917	0.088
Mof_C 	C 	0.7997	0.3326	0.9319	0.12
Mof_H 	H 	0.8105	0.2772	0.9359	-0.016
Mof_C 	C 	0.0932	0.6039	0.9094	0.111
Mof_H 	H 	0.1348	0.584	0.9115	-0.003
Mof_C 	C 	0.0471	0.551	0.9014	-0.184
Mof_H 	H 	0.0559	0.4957	0.8957	0.091
Mof_C 	C 	0.9857	0.5752	0.9011	0.127
Mof_C 	C 	0.9769	0.6577	0.903	-0.172
Mof_H 	H 	0.9353	0.6786	0.8986	0.095
Mof_C 	C 	0.0254	0.7077	0.9108	0.102
Mof_H 	H 	0.0172	0.7635	0.9138	0.007
Mof_Co	Co	0.67295	0.30461	0.7067	1.167
Mof_Co	Co	0.66563	0.2655	0.92982	1.169
Mof_N 	N 	0.7426	0.3533	0.935	-0.238
Mof_N 	N 	0.0865	0.6838	0.9149	-0.231
Mof_C 	C 	0.6155	0.071	0.3	0.1
Mof_H 	H 	0.6347	0.1222	0.3039	-0.039
Mof_N 	N 	0.749	0.887	0.2857	-0.098
Mof_C 	C 	0.7667	0.964	0.301	0.062
Mof_H 	H 	0.8106	0.9765	0.3098	-0
Mof_C 	C 	0.7254	0.0253	0.305	-0.019
Mof_H 	H 	0.7399	0.0789	0.3149	0.023
Mof_C 	C 	0.6612	0.006	0.295	0.047
Mof_C 	C 	0.6415	0.927	0.279	-0.055
Mof_H 	H 	0.5979	0.913	0.2719	0.044
Mof_C 	C 	0.6858	0.8695	0.274	-0.041
Mof_H 	H 	0.6721	0.816	0.2612	0.032
Mof_C 	C 	0.5628	0.074	0.3	-0.177
Mof_H 	H 	0.5475	0.02	0.2993	0.06
Mof_N 	N 	0.402	0.2236	0.298	-0.084
Mof_C 	C 	0.3962	0.1444	0.2794	-0.02
Mof_H 	H 	0.3549	0.1217	0.2648	0.023
Mof_C 	C 	0.4477	0.0967	0.281	-0.07
Mof_H 	H 	0.4417	0.0415	0.2685	0.048
Mof_C 	C 	0.509	0.1275	0.3008	-0.007
Mof_C 	C 	0.5164	0.2086	0.3204	0.002
Mof_H 	H 	0.5572	0.2324	0.3356	0.025
Mof_C 	C 	0.4621	0.2522	0.3167	0.037
Mof_H 	H 	0.4669	0.3077	0.3283	0.004
Mof_C 	C 	0.5948	0.0425	0.29	-0.171
Mof_H 	H 	0.6071	0.0967	0.2852	0.089
Mof_N 	N 	0.7512	0.8856	0.2866	-0.076
Mof_C 	C 	0.7535	0.9655	0.2761	-0.043
Mof_H 	H 	0.7922	0.9863	0.267	0.033
Mof_C 	C 	0.7066	0.0198	0.277	-0.077
Mof_H 	H 	0.7125	0.0756	0.2696	0.051
Mof_C 	C 	0.6493	0.9893	0.2894	0.013
Mof_C 	C 	0.6452	0.9058	0.3001	-0.016
Mof_H 	H 	0.6068	0.8838	0.3089	0.022
Mof_C 	C 	0.695	0.8557	0.2981	0.049
Mof_H 	H 	0.6905	0.7996	0.3047	0.007
Mof_C 	C 	0.5435	0.0405	0.2942	0.121
Mof_H 	H 	0.5277	0.9874	0.2964	-0.042
Mof_N 	N 	0.4054	0.2242	0.3015	-0.104
Mof_C 	C 	0.3911	0.1446	0.3048	0.045
Mof_H 	H 	0.3496	0.1299	0.3093	0.004
Mof_C 	C 	0.4341	0.0855	0.3017	-0.048
Mof_H 	H 	0.4216	0.0309	0.3028	0.03
Mof_C 	C 	0.4951	0.1039	0.297	0.083
Mof_C 	C 	0.5108	0.1849	0.293	-0.082
Mof_H 	H 	0.5521	0.2005	0.2882	0.057
Mof_C 	C 	0.4656	0.2413	0.2963	-0.022
Mof_H 	H 	0.4771	0.2962	0.2948	0.02
Mof_S 	S 	0.00292	0.9504	0.1361	0.038
Mof_C 	C 	0.9568	0.9441	0.1999	-0.103
Mof_C 	C 	0.9765	0.9968	0.2592	0.013
Mof_H 	H 	0.9562	0.0025	0.3004	0.038
Mof_C 	C 	0.0301	0.0406	0.2515	-0.076
Mof_H 	H 	0.0499	0.0805	0.2861	0.058
Mof_C 	C 	0.0508	0.0192	0.188	0.001
Mof_C 	C 	0.9013	0.8897	0.1876	0.361
Mof_O 	O 	0.8684	0.8885	0.2374	-0.44
Mof_O 	O 	0.8968	0.846	0.1279	-0.43
Mof_S 	S 	0.15009	0.1284	0.216	0.037
Mof_C 	C 	0.2059	0.1279	0.1616	-0.157
Mof_C 	C 	0.1894	0.0713	0.1068	0.062
Mof_H 	H 	0.2158	0.0575	0.0732	0.02
Mof_C 	C 	0.1301	0.0351	0.1038	-0.1
Mof_H 	H 	0.1092	0.0013	0.064	0.076
Mof_C 	C 	0.106	0.0544	0.1659	0.014
Mof_C 	C 	0.2571	0.1865	0.1755	0.473
Mof_O 	O 	0.2927	0.1884	0.129	-0.482
Mof_O 	O 	0.2635	0.2274	0.23	-0.491
Mof_S 	S 	0.8068	0.7635	0.5623	0.027
Mof_C 	C 	0.8495	0.8225	0.5154	-0.078
Mof_C 	C 	0.8851	0.8762	0.567	0.007
Mof_H 	H 	0.9122	0.9155	0.5528	0.042
Mof_C 	C 	0.8775	0.867	0.642	-0.077
Mof_H 	H 	0.8997	0.8973	0.6838	0.062
Mof_C 	C 	0.8337	0.8086	0.6458	0.004
Mof_C 	C 	0.8429	0.8133	0.433	0.298
Mof_O 	O 	0.8096	0.7621	0.3977	-0.38
Mof_O 	O 	0.8765	0.8626	0.4006	-0.345
Mof_S 	S 	0.85473	0.8141	0.802	0.029
Mof_C 	C 	0.8064	0.7604	0.8461	-0.109
Mof_C 	C 	0.7606	0.7218	0.7932	0.021
Mof_H 	H 	0.7297	0.6874	0.8066	0.031
Mof_C 	C 	0.7632	0.7376	0.7174	-0.085
Mof_H 	H 	0.7337	0.718	0.6746	0.06
Mof_C 	C 	0.8151	0.7859	0.7149	0.006
Mof_C 	C 	0.8151	0.7611	0.9268	0.339
Mof_O 	O 	0.8543	0.8094	0.9644	-0.375
Mof_O 	O 	0.7869	0.7136	0.9585	-0.384
Mof_C 	C 	0.6186	0.0295	0.0877	-0.075
Mof_H 	H 	0.6312	0.0841	0.0865	0.062
Mof_C 	C 	0.5665	0.0186	0.098	-0.081
Mof_H 	H 	0.5572	0.9642	0.1073	0.056
Mof_C 	C 	0.7702	0.9334	0.0636	0.095
Mof_H 	H 	0.8112	0.9495	0.0583	-0.001
Mof_C 	C 	0.7277	0.9909	0.0695	-0.167
Mof_H 	H 	0.7392	0.0459	0.0688	0.099
Mof_C 	C 	0.6661	0.9694	0.0765	0.113
Mof_C 	C 	0.6565	0.8845	0.0765	-0.175
Mof_H 	H 	0.6167	0.8647	0.083	0.088
Mof_C 	C 	0.7003	0.8326	0.0681	0.121
Mof_H 	H 	0.6895	0.7772	0.0641	-0.016
Mof_C 	C 	0.4068	0.1039	0.0906	0.109
Mof_H 	H 	0.3652	0.084	0.0885	-0.002
Mof_C 	C 	0.4529	0.051	0.0986	-0.18
Mof_H 	H 	0.4441	0.9957	0.1043	0.089
Mof_C 	C 	0.5143	0.0752	0.0989	0.124
Mof_C 	C 	0.5231	0.1577	0.097	-0.171
Mof_H 	H 	0.5647	0.1786	0.1014	0.094
Mof_C 	C 	0.4746	0.2077	0.0892	0.102
Mof_H 	H 	0.4828	0.2635	0.0862	0.007
Mof_Co	Co	0.82705	0.80461	0.2933	1.167
Mof_Co	Co	0.83437	0.7655	0.07018	1.169
Mof_N 	N 	0.7574	0.8533	0.065	-0.238
Mof_N 	N 	0.4135	0.1838	0.0851	-0.23
Mof_C 	C 	0.1155	0.571	0.3	0.1
Mof_H 	H 	0.1347	0.6222	0.3039	-0.039
Mof_N 	N 	0.249	0.387	0.2857	-0.098
Mof_C 	C 	0.2667	0.464	0.301	0.063
Mof_H 	H 	0.3106	0.4765	0.3098	-0
Mof_C 	C 	0.2254	0.5253	0.305	-0.021
Mof_H 	H 	0.2399	0.5789	0.3149	0.023
Mof_C 	C 	0.1612	0.506	0.295	0.05
Mof_C 	C 	0.1415	0.427	0.279	-0.055
Mof_H 	H 	0.0979	0.413	0.2719	0.045
Mof_C 	C 	0.1858	0.3695	0.274	-0.041
Mof_H 	H 	0.1721	0.316	0.2612	0.032
Mof_C 	C 	0.0628	0.574	0.3	-0.174
Mof_H 	H 	0.0475	0.52	0.2993	0.058
Mof_N 	N 	0.902	0.7236	0.298	-0.084
Mof_C 	C 	0.8962	0.6444	0.2794	-0.02
Mof_H 	H 	0.8549	0.6217	0.2648	0.023
Mof_C 	C 	0.9477	0.5967	0.281	-0.07
Mof_H 	H 	0.9417	0.5415	0.2685	0.047
Mof_C 	C 	0.009	0.6275	0.3008	-0.008
Mof_C 	C 	0.0164	0.7086	0.3204	0.003
Mof_H 	H 	0.0572	0.7324	0.3356	0.025
Mof_C 	C 	0.9621	0.7522	0.3167	0.036
Mof_H 	H 	0.9669	0.8077	0.3283	0.004
Mof_C 	C 	0.0948	0.5425	0.29	-0.173
Mof_H 	H 	0.1071	0.5967	0.2852	0.088
Mof_N 	N 	0.2512	0.3856	0.2866	-0.076
Mof_C 	C 	0.2535	0.4655	0.2761	-0.042
Mof_H 	H 	0.2922	0.4863	0.267	0.033
Mof_C 	C 	0.2066	0.5198	0.277	-0.078
Mof_H 	H 	0.2125	0.5756	0.2696	0.051
Mof_C 	C 	0.1493	0.4893	0.2894	0.011
Mof_C 	C 	0.1452	0.4058	0.3001	-0.016
Mof_H 	H 	0.1068	0.3838	0.3089	0.021
Mof_C 	C 	0.195	0.3557	0.2981	0.049
Mof_H 	H 	0.1905	0.2996	0.3047	0.007
Mof_C 	C 	0.0435	0.5405	0.2942	0.12
Mof_H 	H 	0.0277	0.4874	0.2964	-0.04
Mof_N 	N 	0.9054	0.7242	0.3015	-0.104
Mof_C 	C 	0.8911	0.6446	0.3048	0.045
Mof_H 	H 	0.8496	0.6299	0.3093	0.004
Mof_C 	C 	0.9341	0.5855	0.3017	-0.048
Mof_H 	H 	0.9216	0.5309	0.3028	0.03
Mof_C 	C 	0.9951	0.6039	0.297	0.083
Mof_C 	C 	0.0108	0.6849	0.293	-0.082
Mof_H 	H 	0.0521	0.7005	0.2882	0.056
Mof_C 	C 	0.9656	0.7413	0.2963	-0.022
Mof_H 	H 	0.9771	0.7962	0.2948	0.021
Mof_S 	S 	0.50292	0.4504	0.1361	0.038
Mof_C 	C 	0.4568	0.4441	0.1999	-0.104
Mof_C 	C 	0.4765	0.4968	0.2592	0.017
Mof_H 	H 	0.4562	0.5025	0.3004	0.036
Mof_C 	C 	0.5301	0.5406	0.2515	-0.079
Mof_H 	H 	0.5499	0.5805	0.2861	0.059
Mof_C 	C 	0.5508	0.5192	0.188	0.001
Mof_C 	C 	0.4013	0.3897	0.1876	0.362
Mof_O 	O 	0.3684	0.3885	0.2374	-0.44
Mof_O 	O 	0.3968	0.346	0.1279	-0.429
Mof_S 	S 	0.65009	0.6284	0.216	0.037
Mof_C 	C 	0.7059	0.6279	0.1616	-0.157
Mof_C 	C 	0.6894	0.5713	0.1068	0.062
Mof_H 	H 	0.7158	0.5575	0.0732	0.02
Mof_C 	C 	0.6301	0.5351	0.1038	-0.1
Mof_H 	H 	0.6092	0.5013	0.064	0.076
Mof_C 	C 	0.606	0.5544	0.1659	0.014
Mof_C 	C 	0.7571	0.6865	0.1755	0.473
Mof_O 	O 	0.7927	0.6884	0.129	-0.482
Mof_O 	O 	0.7635	0.7274	0.23	-0.491
Mof_S 	S 	0.3068	0.2635	0.5623	0.027
Mof_C 	C 	0.3495	0.3225	0.5154	-0.077
Mof_C 	C 	0.3851	0.3762	0.567	0.007
Mof_H 	H 	0.4122	0.4155	0.5528	0.042
Mof_C 	C 	0.3775	0.367	0.642	-0.077
Mof_H 	H 	0.3997	0.3973	0.6838	0.062
Mof_C 	C 	0.3337	0.3086	0.6458	0.004
Mof_C 	C 	0.3429	0.3133	0.433	0.298
Mof_O 	O 	0.3096	0.2621	0.3977	-0.38
Mof_O 	O 	0.3765	0.3626	0.4006	-0.345
Mof_S 	S 	0.35473	0.3141	0.802	0.03
Mof_C 	C 	0.3064	0.2604	0.8461	-0.109
Mof_C 	C 	0.2606	0.2218	0.7932	0.021
Mof_H 	H 	0.2297	0.1874	0.8066	0.031
Mof_C 	C 	0.2632	0.2376	0.7174	-0.085
Mof_H 	H 	0.2337	0.218	0.6746	0.06
Mof_C 	C 	0.3151	0.2859	0.7149	0.006
Mof_C 	C 	0.3151	0.2611	0.9268	0.339
Mof_O 	O 	0.3543	0.3094	0.9644	-0.375
Mof_O 	O 	0.2869	0.2136	0.9585	-0.384
Mof_C 	C 	0.1186	0.5295	0.0877	-0.073
Mof_H 	H 	0.1312	0.5841	0.0865	0.061
Mof_C 	C 	0.0665	0.5186	0.098	-0.085
Mof_H 	H 	0.0572	0.4642	0.1073	0.058
Mof_C 	C 	0.2702	0.4334	0.0636	0.094
Mof_H 	H 	0.3112	0.4495	0.0583	-0.001
Mof_C 	C 	0.2277	0.4909	0.0695	-0.165
Mof_H 	H 	0.2392	0.5459	0.0688	0.097
Mof_C 	C 	0.1661	0.4694	0.0765	0.112
Mof_C 	C 	0.1565	0.3845	0.0765	-0.174
Mof_H 	H 	0.1167	0.3647	0.083	0.088
Mof_C 	C 	0.2003	0.3326	0.0681	0.12
Mof_H 	H 	0.1895	0.2772	0.0641	-0.016
Mof_C 	C 	0.9068	0.6039	0.0906	0.111
Mof_H 	H 	0.8652	0.584	0.0885	-0.003
Mof_C 	C 	0.9529	0.551	0.0986	-0.184
Mof_H 	H 	0.9441	0.4957	0.1043	0.091
Mof_C 	C 	0.0143	0.5752	0.0989	0.127
Mof_C 	C 	0.0231	0.6577	0.097	-0.172
Mof_H 	H 	0.0647	0.6786	0.1014	0.095
Mof_C 	C 	0.9746	0.7077	0.0892	0.102
Mof_H 	H 	0.9828	0.7635	0.0862	0.007
Mof_Co	Co	0.32705	0.30461	0.2933	1.167
Mof_Co	Co	0.33437	0.2655	0.07018	1.169
Mof_N 	N 	0.2574	0.3533	0.065	-0.238
Mof_N 	N 	0.9135	0.6838	0.0851	-0.231
_end
