data_functionalizedCrystal
_audit_creation_method	'EQeq! by Chris Wilmer'
_symmetry_space_group_name_H-M	'P1'
_symmetry_Int_Tables_number	1
_symmetry_cell_setting	triclinic
loop_
_symmetry_equiv_pos_as_xyz
  x,y,z
_cell_length_a	28.937
_cell_length_b	28.937
_cell_length_c	10.6939
_cell_angle_alpha	90
_cell_angle_beta	90
_cell_angle_gamma	120
loop_
_atom_site_label
_atom_site_type_symbol
_atom_site_fract_x
_atom_site_fract_y
_atom_site_fract_z
_atom_site_charge
Mof_C 	C 	0.01513	0.30267	0.1743	0.404
Mof_C 	C 	0.05019	0.35782	0.1634	-0.468
Mof_H 	H 	0.0869	0.3716	0.1599	0.176
Mof_C 	C 	0.0297	0.39062	0.1605	0.417
Mof_C 	C 	0.97408	0.36974	0.1682	-0.475
Mof_H 	H 	0.96	0.3924	0.1656	0.195
Mof_C 	C 	0.94165	0.31551	0.1772	0.43
Mof_C 	C 	0.95972	0.28117	0.1838	-0.483
Mof_H 	H 	0.9369	0.2446	0.1925	0.209
Mof_C 	C 	0.0859	0.28422	0.1651	-0.167
Mof_H 	H 	0.1055	0.3055	0.237	0.087
Mof_H 	H 	0.0985	0.3068	0.0915	0.089
Mof_C 	C 	0.09653	0.23928	0.1477	0.361
Mof_C 	C 	0.04998	0.48011	0.167	-0.129
Mof_H 	H 	0.0344	0.4766	0.2493	0.076
Mof_H 	H 	0.0233	0.4744	0.1046	0.08
Mof_C 	C 	0.09853	0.53522	0.1524	0.353
Mof_C 	C 	0.85061	0.24395	0.1958	-0.196
Mof_H 	H 	0.8536	0.2318	0.2784	0.1
Mof_H 	H 	0.8581	0.2241	0.1338	0.097
Mof_C 	C 	0.79658	0.23599	0.1753	0.395
Mof_C 	C 	0.65442	0.03927	0.1816	0.402
Mof_C 	C 	0.61848	0.98505	0.1785	-0.438
Mof_H 	H 	0.582	0.972	0.1847	0.193
Mof_C 	C 	0.63981	0.95042	0.1624	0.406
Mof_C 	C 	0.69476	0.97124	0.1641	-0.468
Mof_H 	H 	0.7086	0.9484	0.1594	0.22
Mof_C 	C 	0.72812	0.02499	0.169	0.421
Mof_C 	C 	0.70936	0.05956	0.1792	-0.471
Mof_H 	H 	0.7323	0.0962	0.1857	0.204
Mof_C 	C 	0.58119	0.05721	0.186	-0.193
Mof_H 	H 	0.5643	0.0382	0.2625	0.096
Mof_H 	H 	0.5653	0.0327	0.1164	0.102
Mof_C 	C 	0.57238	0.10308	0.1699	0.394
Mof_C 	C 	0.6206	0.86197	0.1575	-0.215
Mof_H 	H 	0.6404	0.8645	0.2328	0.105
Mof_H 	H 	0.6441	0.8697	0.0863	0.106
Mof_C 	C 	0.57561	0.8073	0.1453	0.422
Mof_C 	C 	0.81812	0.09593	0.1852	-0.144
Mof_H 	H 	0.8138	0.1052	0.2699	0.086
Mof_H 	H 	0.8124	0.1184	0.1274	0.082
Mof_C 	C 	0.87433	0.10296	0.1647	0.399
Mof_C 	C 	0.01634	0.14541	0.4242	0.05
Mof_H 	H 	0.0378	0.1376	0.3741	0.011
Mof_C 	C 	0.01588	0.13811	0.5496	-0.099
Mof_H 	H 	0.0367	0.1254	0.5856	0.066
Mof_C 	C 	0.98404	0.14869	0.6264	0.018
Mof_H 	H 	0.9833	0.1438	0.7125	0.052
Mof_C 	C 	0.95266	0.1682	0.5721	-0.087
Mof_H 	H 	0.9312	0.176	0.6222	0.072
Mof_C 	C 	0.95354	0.17632	0.4449	0.04
Mof_H 	H 	0.9327	0.1892	0.4088	0.019
Mof_C 	C 	0.2	0.6816	0.4146	-0.016
Mof_H 	H 	0.2295	0.704	0.3661	0.01
Mof_C 	C 	0.2022	0.6783	0.5378	-0.043
Mof_H 	H 	0.2351	0.6999	0.5757	-0.011
Mof_C 	C 	0.1642	0.6489	0.6193	-0.233
Mof_C 	C 	0.1171	0.6165	0.5632	-0.014
Mof_H 	H 	0.0876	0.5941	0.6116	0.012
Mof_C 	C 	0.104	0.6193	0.4337	0.019
Mof_H 	H 	0.0711	0.5977	0.3958	0.065
Mof_C 	C 	0.1927	0.5383	0.5688	-0.032
Mof_H 	H 	0.2026	0.5697	0.6126	-0.004
Mof_C 	C 	0.1968	0.5475	0.425	0.022
Mof_H 	H 	0.2068	0.579	0.3818	0.024
Mof_C 	C 	0.1779	0.495	0.3617	-0.223
Mof_C 	C 	0.1691	0.4496	0.4116	0.018
Mof_H 	H 	0.1592	0.4182	0.3678	0.045
Mof_C 	C 	0.1699	0.4527	0.5534	-0.038
Mof_H 	H 	0.16	0.4213	0.5966	-0.007
Mof_N 	N 	0.98633	0.1641	0.3687	-0.203
Mof_N 	N 	0.1538	0.6488	0.365	0.241
Mof_N 	N 	0.1796	0.496	0.6196	0.196
Mof_O 	O 	0.05891	0.19242	0.1683	-0.397
Mof_O 	O 	0.14312	0.24976	0.1248	-0.284
Mof_O 	O 	0.03154	0.26547	0.1821	-0.3
Mof_O 	O 	0.08864	0.5747	0.1744	-0.37
Mof_O 	O 	0.14252	0.54276	0.1319	-0.385
Mof_O 	O 	0.06657	0.4436	0.1519	-0.331
Mof_O 	O 	0.7594	0.18716	0.195	-0.393
Mof_O 	O 	0.78796	0.27185	0.14999	-0.413
Mof_O 	O 	0.88739	0.29977	0.1816	-0.311
Mof_O 	O 	0.609	0.14906	0.1677	-0.415
Mof_O 	O 	0.52404	0.08786	0.1487	-0.38
Mof_O 	O 	0.63671	0.07518	0.1899	-0.299
Mof_O 	O 	0.5276	0.79876	0.1541	-0.383
Mof_O 	O 	0.58209	0.77022	0.1297	-0.42
Mof_O 	O 	0.60295	0.89933	0.16222	-0.291
Mof_O 	O 	0.90942	0.15072	0.1917	-0.426
Mof_O 	O 	0.87969	0.06752	0.1352	-0.324
Mof_O 	O 	0.78261	0.0427	0.1606	-0.233
Mof_Cu	Cu	0.98394	0.16773	0.18235	0.901
Mof_Cu	Cu	0.14707	0.65046	0.17633	1.069
Mof_Cu	Cu	0.16294	0.47808	0.16651	0.921
Mof_Cu	Cu	0.68437	0.171	0.19115	1.042
Mof_Cu	Cu	0.84344	0.35373	0.20434	1.03
Mof_O 	O 	0.15077	0.64505	0.9917	-0.78
Mof_O 	O 	0.176	0.48686	0.9895	-0.754
Mof_H 	H 	0.1677	0.6481	0.7085	-0.401
Mof_H 	H 	0.6829	0.178	0.7281	-0.197
Mof_C 	C 	0.206	0.6848	0.4224	0.017
Mof_H 	H 	0.2355	0.7073	0.3739	0.023
Mof_C 	C 	0.2143	0.6857	0.5489	0.023
Mof_H 	H 	0.2472	0.7073	0.5867	0.043
Mof_C 	C 	0.155	0.654	0.356	-0.291
Mof_H 	H 	0.1516	0.6551	0.2673	-0.356
Mof_C 	C 	0.116	0.6174	0.5607	-0.014
Mof_H 	H 	0.0866	0.5949	0.6092	0.011
Mof_C 	C 	0.1169	0.6197	0.4294	-0.031
Mof_H 	H 	0.084	0.5981	0.3916	-0.032
Mof_C 	C 	0.6485	0.1941	0.4542	0.021
Mof_H 	H 	0.6271	0.2041	0.4107	0.041
Mof_C 	C 	0.6522	0.1917	0.5736	-0.034
Mof_H 	H 	0.6308	0.2016	0.6171	0.004
Mof_C 	C 	0.6832	0.1804	0.375	-0.24
Mof_H 	H 	0.6832	0.1803	0.2854	-0.305
Mof_C 	C 	0.7123	0.1591	0.5652	-0.02
Mof_H 	H 	0.7338	0.1492	0.6086	-0.03
Mof_C 	C 	0.7134	0.1578	0.4425	0.018
Mof_H 	H 	0.7348	0.1478	0.399	0.045
Mof_N 	N 	0.1656	0.6492	0.6156	0.209
Mof_N 	N 	0.6838	0.1806	0.6387	0.135
Mof_H 	H 	0.1749	0.6747	0.9624	0.289
Mof_H 	H 	0.1208	0.6373	0.9599	0.276
Mof_H 	H 	0.6579	0.1606	0.9797	0.25
Mof_H 	H 	0.7059	0.1608	0.984	0.234
Mof_C 	C 	0.69733	0.71246	0.1743	0.406
Mof_C 	C 	0.64218	0.69237	0.1634	-0.468
Mof_H 	H 	0.6284	0.7153	0.1599	0.178
Mof_C 	C 	0.60938	0.63908	0.1605	0.42
Mof_C 	C 	0.63026	0.60434	0.1682	-0.477
Mof_H 	H 	0.6076	0.5676	0.1656	0.197
Mof_C 	C 	0.68449	0.62614	0.1772	0.432
Mof_C 	C 	0.71883	0.67855	0.1838	-0.485
Mof_H 	H 	0.7554	0.6923	0.1925	0.211
Mof_C 	C 	0.71578	0.80168	0.1651	-0.166
Mof_H 	H 	0.6945	0.8	0.237	0.088
Mof_H 	H 	0.6932	0.7917	0.0915	0.09
Mof_C 	C 	0.76072	0.85725	0.1477	0.362
Mof_C 	C 	0.51989	0.56987	0.167	-0.128
Mof_H 	H 	0.5234	0.5578	0.2493	0.076
Mof_H 	H 	0.5256	0.5489	0.1046	0.08
Mof_C 	C 	0.46478	0.56331	0.1524	0.353
Mof_C 	C 	0.75605	0.60666	0.1958	-0.195
Mof_H 	H 	0.7682	0.6218	0.2784	0.099
Mof_H 	H 	0.7759	0.634	0.1338	0.096
Mof_C 	C 	0.76401	0.56059	0.1753	0.395
Mof_C 	C 	0.96073	0.61515	0.1816	0.402
Mof_C 	C 	0.01495	0.63343	0.1785	-0.438
Mof_H 	H 	0.028	0.61	0.1847	0.193
Mof_C 	C 	0.04958	0.68939	0.1624	0.406
Mof_C 	C 	0.02876	0.72352	0.1641	-0.468
Mof_H 	H 	0.0516	0.7602	0.1594	0.22
Mof_C 	C 	0.97501	0.70313	0.169	0.42
Mof_C 	C 	0.94044	0.6498	0.1792	-0.471
Mof_H 	H 	0.9038	0.6361	0.1857	0.204
Mof_C 	C 	0.94279	0.52398	0.186	-0.193
Mof_H 	H 	0.9618	0.5261	0.2625	0.096
Mof_H 	H 	0.9673	0.5326	0.1164	0.101
Mof_C 	C 	0.89692	0.4693	0.1699	0.394
Mof_C 	C 	0.13803	0.75863	0.1575	-0.215
Mof_H 	H 	0.1355	0.7759	0.2328	0.105
Mof_H 	H 	0.1303	0.7744	0.0863	0.105
Mof_C 	C 	0.1927	0.76831	0.1453	0.422
Mof_C 	C 	0.90407	0.72219	0.1852	-0.144
Mof_H 	H 	0.8948	0.7086	0.2699	0.086
Mof_H 	H 	0.8816	0.694	0.1274	0.082
Mof_C 	C 	0.89704	0.77137	0.1647	0.399
Mof_C 	C 	0.85459	0.87093	0.4242	0.051
Mof_H 	H 	0.8624	0.9002	0.3741	0.011
Mof_C 	C 	0.86189	0.87777	0.5496	-0.1
Mof_H 	H 	0.8746	0.9113	0.5856	0.066
Mof_C 	C 	0.85131	0.83535	0.6264	0.018
Mof_H 	H 	0.8562	0.8395	0.7125	0.052
Mof_C 	C 	0.8318	0.78446	0.5721	-0.088
Mof_H 	H 	0.824	0.7552	0.6222	0.072
Mof_C 	C 	0.82368	0.77722	0.4449	0.04
Mof_H 	H 	0.8108	0.7435	0.4088	0.019
Mof_C 	C 	0.3184	0.5184	0.4146	-0.016
Mof_H 	H 	0.296	0.5255	0.3661	0.01
Mof_C 	C 	0.3217	0.5239	0.5378	-0.043
Mof_H 	H 	0.3001	0.5352	0.5757	-0.011
Mof_C 	C 	0.3511	0.5153	0.6193	-0.233
Mof_C 	C 	0.3835	0.5006	0.5632	-0.014
Mof_H 	H 	0.4059	0.4935	0.6116	0.012
Mof_C 	C 	0.3807	0.4847	0.4337	0.019
Mof_H 	H 	0.4023	0.4734	0.3958	0.065
Mof_C 	C 	0.4617	0.6544	0.5688	-0.032
Mof_H 	H 	0.4303	0.6329	0.6126	-0.004
Mof_C 	C 	0.4525	0.6493	0.425	0.022
Mof_H 	H 	0.421	0.6278	0.3818	0.024
Mof_C 	C 	0.505	0.6829	0.3617	-0.223
Mof_C 	C 	0.5504	0.7195	0.4116	0.018
Mof_H 	H 	0.5818	0.741	0.3678	0.045
Mof_C 	C 	0.5473	0.7172	0.5534	-0.038
Mof_H 	H 	0.5787	0.7387	0.5966	-0.007
Mof_N 	N 	0.8359	0.82223	0.3687	-0.204
Mof_N 	N 	0.3512	0.505	0.365	0.241
Mof_N 	N 	0.504	0.6836	0.6196	0.196
Mof_O 	O 	0.80758	0.86649	0.1683	-0.397
Mof_O 	O 	0.75024	0.89336	0.1248	-0.284
Mof_O 	O 	0.73453	0.76607	0.1821	-0.3
Mof_O 	O 	0.4253	0.51394	0.1744	-0.37
Mof_O 	O 	0.45724	0.59976	0.1319	-0.385
Mof_O 	O 	0.5564	0.62297	0.1519	-0.331
Mof_O 	O 	0.81284	0.57224	0.195	-0.393
Mof_O 	O 	0.72815	0.51611	0.14999	-0.413
Mof_O 	O 	0.70023	0.58762	0.1816	-0.311
Mof_O 	O 	0.85094	0.45994	0.1677	-0.415
Mof_O 	O 	0.91214	0.43618	0.1487	-0.38
Mof_O 	O 	0.92482	0.56153	0.1899	-0.299
Mof_O 	O 	0.20124	0.72884	0.1541	-0.383
Mof_O 	O 	0.22978	0.81187	0.1297	-0.42
Mof_O 	O 	0.10067	0.70362	0.16222	-0.291
Mof_O 	O 	0.84928	0.7587	0.1917	-0.426
Mof_O 	O 	0.93248	0.81217	0.1352	-0.325
Mof_O 	O 	0.9573	0.73991	0.1606	-0.233
Mof_Cu	Cu	0.83227	0.81621	0.18235	0.901
Mof_Cu	Cu	0.34954	0.49661	0.17633	1.069
Mof_Cu	Cu	0.52192	0.68486	0.16651	0.921
Mof_Cu	Cu	0.829	0.51337	0.19115	1.042
Mof_Cu	Cu	0.64627	0.48971	0.20434	1.03
Mof_O 	O 	0.35495	0.50572	0.9917	-0.78
Mof_O 	O 	0.51314	0.68914	0.9895	-0.755
Mof_H 	H 	0.3519	0.5196	0.7085	-0.401
Mof_H 	H 	0.822	0.5049	0.7281	-0.197
Mof_C 	C 	0.3152	0.5212	0.4224	0.017
Mof_H 	H 	0.2927	0.5282	0.3739	0.023
Mof_C 	C 	0.3143	0.5286	0.5489	0.023
Mof_H 	H 	0.2927	0.5399	0.5867	0.043
Mof_C 	C 	0.346	0.501	0.356	-0.291
Mof_H 	H 	0.3449	0.4965	0.2673	-0.356
Mof_C 	C 	0.3826	0.4986	0.5607	-0.014
Mof_H 	H 	0.4051	0.4917	0.6092	0.011
Mof_C 	C 	0.3803	0.4972	0.4294	-0.031
Mof_H 	H 	0.4019	0.4859	0.3916	-0.032
Mof_C 	C 	0.8059	0.4544	0.4542	0.021
Mof_H 	H 	0.7959	0.423	0.4107	0.041
Mof_C 	C 	0.8083	0.4605	0.5736	-0.034
Mof_H 	H 	0.7984	0.4292	0.6171	0.004
Mof_C 	C 	0.8196	0.5028	0.375	-0.24
Mof_H 	H 	0.8197	0.5029	0.2854	-0.305
Mof_C 	C 	0.8409	0.5532	0.5652	-0.02
Mof_H 	H 	0.8508	0.5846	0.6086	-0.03
Mof_C 	C 	0.8422	0.5556	0.4425	0.018
Mof_H 	H 	0.8522	0.587	0.399	0.045
Mof_N 	N 	0.3508	0.5164	0.6156	0.209
Mof_N 	N 	0.8194	0.5032	0.6387	0.135
Mof_H 	H 	0.3253	0.5002	0.9624	0.289
Mof_H 	H 	0.3627	0.4835	0.9599	0.276
Mof_H 	H 	0.8394	0.4973	0.9797	0.251
Mof_H 	H 	0.8392	0.5451	0.984	0.235
Mof_C 	C 	0.28754	0.98487	0.1743	0.405
Mof_C 	C 	0.30763	0.94981	0.1634	-0.467
Mof_H 	H 	0.2847	0.9131	0.1599	0.177
Mof_C 	C 	0.36092	0.9703	0.1605	0.418
Mof_C 	C 	0.39566	0.02592	0.1682	-0.474
Mof_H 	H 	0.4324	0.04	0.1656	0.196
Mof_C 	C 	0.37386	0.05835	0.1772	0.431
Mof_C 	C 	0.32145	0.04028	0.1838	-0.483
Mof_H 	H 	0.3077	0.0631	0.1925	0.21
Mof_C 	C 	0.19832	0.9141	0.1651	-0.166
Mof_H 	H 	0.2	0.8945	0.237	0.088
Mof_H 	H 	0.2083	0.9015	0.0915	0.09
Mof_C 	C 	0.14275	0.90347	0.1477	0.362
Mof_C 	C 	0.43013	0.95002	0.167	-0.128
Mof_H 	H 	0.4422	0.9656	0.2493	0.076
Mof_H 	H 	0.4511	0.9767	0.1046	0.08
Mof_C 	C 	0.43669	0.90147	0.1524	0.353
Mof_C 	C 	0.39334	0.14939	0.1958	-0.196
Mof_H 	H 	0.3782	0.1464	0.2784	0.099
Mof_H 	H 	0.366	0.1419	0.1338	0.096
Mof_C 	C 	0.43941	0.20342	0.1753	0.395
Mof_C 	C 	0.38485	0.34558	0.1816	0.4
Mof_C 	C 	0.36657	0.38152	0.1785	-0.436
Mof_H 	H 	0.39	0.418	0.1847	0.193
Mof_C 	C 	0.31061	0.36019	0.1624	0.405
Mof_C 	C 	0.27648	0.30524	0.1641	-0.466
Mof_H 	H 	0.2398	0.2914	0.1594	0.219
Mof_C 	C 	0.29687	0.27188	0.169	0.419
Mof_C 	C 	0.3502	0.29064	0.1792	-0.47
Mof_H 	H 	0.3639	0.2677	0.1857	0.203
Mof_C 	C 	0.47602	0.41881	0.186	-0.193
Mof_H 	H 	0.4739	0.4357	0.2625	0.096
Mof_H 	H 	0.4674	0.4347	0.1164	0.101
Mof_C 	C 	0.5307	0.42762	0.1699	0.394
Mof_C 	C 	0.24137	0.3794	0.1575	-0.215
Mof_H 	H 	0.2241	0.3596	0.2328	0.105
Mof_H 	H 	0.2256	0.3559	0.0863	0.106
Mof_C 	C 	0.23169	0.42439	0.1453	0.422
Mof_C 	C 	0.27781	0.18188	0.1852	-0.145
Mof_H 	H 	0.2914	0.1862	0.2699	0.086
Mof_H 	H 	0.306	0.1876	0.1274	0.082
Mof_C 	C 	0.22863	0.12567	0.1647	0.399
Mof_C 	C 	0.12907	0.98366	0.4242	0.05
Mof_H 	H 	0.0998	0.9622	0.3741	0.011
Mof_C 	C 	0.12223	0.98412	0.5496	-0.099
Mof_H 	H 	0.0887	0.9633	0.5856	0.066
Mof_C 	C 	0.16465	0.01596	0.6264	0.018
Mof_H 	H 	0.1605	0.0167	0.7125	0.052
Mof_C 	C 	0.21554	0.04734	0.5721	-0.087
Mof_H 	H 	0.2448	0.0688	0.6222	0.072
Mof_C 	C 	0.22278	0.04646	0.4449	0.04
Mof_H 	H 	0.2565	0.0673	0.4088	0.019
Mof_C 	C 	0.4816	0.8	0.4146	-0.016
Mof_H 	H 	0.4745	0.7705	0.3661	0.01
Mof_C 	C 	0.4761	0.7978	0.5378	-0.043
Mof_H 	H 	0.4648	0.7649	0.5757	-0.011
Mof_C 	C 	0.4847	0.8358	0.6193	-0.233
Mof_C 	C 	0.4994	0.8829	0.5632	-0.014
Mof_H 	H 	0.5065	0.9124	0.6116	0.012
Mof_C 	C 	0.5153	0.896	0.4337	0.019
Mof_H 	H 	0.5266	0.9289	0.3958	0.065
Mof_C 	C 	0.3456	0.8073	0.5688	-0.032
Mof_H 	H 	0.3671	0.7974	0.6126	-0.004
Mof_C 	C 	0.3507	0.8032	0.425	0.022
Mof_H 	H 	0.3722	0.7932	0.3818	0.024
Mof_C 	C 	0.3171	0.8221	0.3617	-0.223
Mof_C 	C 	0.2805	0.8309	0.4116	0.018
Mof_H 	H 	0.259	0.8408	0.3678	0.045
Mof_C 	C 	0.2828	0.8301	0.5534	-0.038
Mof_H 	H 	0.2613	0.84	0.5966	-0.007
Mof_N 	N 	0.17777	0.01367	0.3687	-0.204
Mof_N 	N 	0.495	0.8462	0.365	0.241
Mof_N 	N 	0.3164	0.8204	0.6196	0.196
Mof_O 	O 	0.13351	0.94109	0.1683	-0.397
Mof_O 	O 	0.10664	0.85688	0.1248	-0.284
Mof_O 	O 	0.23393	0.96846	0.1821	-0.3
Mof_O 	O 	0.48606	0.91136	0.1744	-0.37
Mof_O 	O 	0.40024	0.85748	0.1319	-0.385
Mof_O 	O 	0.37703	0.93343	0.1519	-0.331
Mof_O 	O 	0.42776	0.2406	0.195	-0.393
Mof_O 	O 	0.48389	0.21204	0.14999	-0.413
Mof_O 	O 	0.41238	0.11261	0.1816	-0.311
Mof_O 	O 	0.54006	0.391	0.1677	-0.415
Mof_O 	O 	0.56382	0.47596	0.1487	-0.38
Mof_O 	O 	0.43847	0.36329	0.1899	-0.299
Mof_O 	O 	0.27116	0.4724	0.1541	-0.383
Mof_O 	O 	0.18813	0.41791	0.1297	-0.42
Mof_O 	O 	0.29638	0.39705	0.16222	-0.291
Mof_O 	O 	0.2413	0.09058	0.1917	-0.426
Mof_O 	O 	0.18783	0.12031	0.1352	-0.325
Mof_O 	O 	0.26009	0.21739	0.1606	-0.233
Mof_Cu	Cu	0.18379	0.01606	0.18235	0.901
Mof_Cu	Cu	0.50339	0.85293	0.17633	1.069
Mof_Cu	Cu	0.31514	0.83706	0.16651	0.921
Mof_Cu	Cu	0.48663	0.31563	0.19115	1.042
Mof_Cu	Cu	0.51029	0.15656	0.20434	1.03
Mof_O 	O 	0.49428	0.84923	0.9917	-0.78
Mof_O 	O 	0.31086	0.824	0.9895	-0.752
Mof_H 	H 	0.4804	0.8323	0.7085	-0.401
Mof_H 	H 	0.4951	0.3171	0.7281	-0.197
Mof_C 	C 	0.4788	0.794	0.4224	0.017
Mof_H 	H 	0.4718	0.7645	0.3739	0.023
Mof_C 	C 	0.4714	0.7857	0.5489	0.023
Mof_H 	H 	0.4601	0.7528	0.5867	0.043
Mof_C 	C 	0.499	0.845	0.356	-0.291
Mof_H 	H 	0.5035	0.8484	0.2673	-0.356
Mof_C 	C 	0.5014	0.884	0.5607	-0.014
Mof_H 	H 	0.5083	0.9134	0.6092	0.011
Mof_C 	C 	0.5028	0.8831	0.4294	-0.031
Mof_H 	H 	0.5141	0.916	0.3916	-0.032
Mof_C 	C 	0.5456	0.3515	0.4542	0.021
Mof_H 	H 	0.577	0.3729	0.4107	0.041
Mof_C 	C 	0.5395	0.3478	0.5736	-0.034
Mof_H 	H 	0.5708	0.3692	0.6171	0.004
Mof_C 	C 	0.4972	0.3168	0.375	-0.24
Mof_H 	H 	0.4971	0.3168	0.2854	-0.305
Mof_C 	C 	0.4468	0.2877	0.5652	-0.02
Mof_H 	H 	0.4154	0.2662	0.6086	-0.03
Mof_C 	C 	0.4444	0.2866	0.4425	0.018
Mof_H 	H 	0.413	0.2652	0.399	0.045
Mof_N 	N 	0.4836	0.8344	0.6156	0.209
Mof_N 	N 	0.4968	0.3162	0.6387	0.135
Mof_H 	H 	0.4998	0.8251	0.9624	0.288
Mof_H 	H 	0.5165	0.8792	0.9599	0.276
Mof_H 	H 	0.5027	0.3421	0.9797	0.252
Mof_H 	H 	0.4549	0.2941	0.984	0.235
Mof_C 	C 	0.98487	0.69733	0.8257	0.405
Mof_C 	C 	0.94981	0.64218	0.8366	-0.467
Mof_H 	H 	0.9131	0.6284	0.8401	0.177
Mof_C 	C 	0.9703	0.60938	0.8395	0.418
Mof_C 	C 	0.02592	0.63026	0.8318	-0.474
Mof_H 	H 	0.04	0.6076	0.8344	0.196
Mof_C 	C 	0.05835	0.68449	0.8228	0.431
Mof_C 	C 	0.04028	0.71883	0.8162	-0.482
Mof_H 	H 	0.0631	0.7554	0.8075	0.21
Mof_C 	C 	0.9141	0.71578	0.8349	-0.166
Mof_H 	H 	0.8945	0.6945	0.763	0.088
Mof_H 	H 	0.9015	0.6932	0.9085	0.09
Mof_C 	C 	0.90347	0.76072	0.8523	0.362
Mof_C 	C 	0.95002	0.51989	0.833	-0.128
Mof_H 	H 	0.9656	0.5234	0.7507	0.076
Mof_H 	H 	0.9767	0.5256	0.8954	0.08
Mof_C 	C 	0.90147	0.46478	0.8476	0.353
Mof_C 	C 	0.14939	0.75605	0.8042	-0.196
Mof_H 	H 	0.1464	0.7682	0.7216	0.1
Mof_H 	H 	0.1419	0.7759	0.8662	0.097
Mof_C 	C 	0.20342	0.76401	0.8247	0.395
Mof_C 	C 	0.34558	0.96073	0.8184	0.402
Mof_C 	C 	0.38152	0.01495	0.8215	-0.438
Mof_H 	H 	0.418	0.028	0.8153	0.193
Mof_C 	C 	0.36019	0.04958	0.8376	0.406
Mof_C 	C 	0.30524	0.02876	0.8359	-0.468
Mof_H 	H 	0.2914	0.0516	0.8406	0.22
Mof_C 	C 	0.27188	0.97501	0.831	0.421
Mof_C 	C 	0.29064	0.94044	0.8208	-0.471
Mof_H 	H 	0.2677	0.9038	0.8143	0.204
Mof_C 	C 	0.41881	0.94279	0.814	-0.193
Mof_H 	H 	0.4357	0.9618	0.7375	0.096
Mof_H 	H 	0.4347	0.9673	0.8836	0.102
Mof_C 	C 	0.42762	0.89692	0.8301	0.394
Mof_C 	C 	0.3794	0.13803	0.8425	-0.215
Mof_H 	H 	0.3596	0.1355	0.7672	0.105
Mof_H 	H 	0.3559	0.1303	0.9137	0.106
Mof_C 	C 	0.42439	0.1927	0.8547	0.422
Mof_C 	C 	0.18188	0.90407	0.8148	-0.144
Mof_H 	H 	0.1862	0.8948	0.7301	0.086
Mof_H 	H 	0.1876	0.8816	0.8726	0.082
Mof_C 	C 	0.12567	0.89704	0.8353	0.399
Mof_C 	C 	0.98366	0.85459	0.5758	0.05
Mof_H 	H 	0.9622	0.8624	0.6259	0.011
Mof_C 	C 	0.98412	0.86189	0.4504	-0.099
Mof_H 	H 	0.9633	0.8746	0.4144	0.066
Mof_C 	C 	0.01596	0.85131	0.3736	0.018
Mof_H 	H 	0.0167	0.8562	0.2875	0.052
Mof_C 	C 	0.04734	0.8318	0.4279	-0.087
Mof_H 	H 	0.0688	0.824	0.3778	0.072
Mof_C 	C 	0.04646	0.82368	0.5551	0.04
Mof_H 	H 	0.0673	0.8108	0.5912	0.019
Mof_C 	C 	0.8	0.3184	0.5854	-0.016
Mof_H 	H 	0.7705	0.296	0.6339	0.01
Mof_C 	C 	0.7978	0.3217	0.4622	-0.043
Mof_H 	H 	0.7649	0.3001	0.4243	-0.011
Mof_C 	C 	0.8358	0.3511	0.3807	-0.233
Mof_C 	C 	0.8829	0.3835	0.4368	-0.014
Mof_H 	H 	0.9124	0.4059	0.3884	0.012
Mof_C 	C 	0.896	0.3807	0.5663	0.019
Mof_H 	H 	0.9289	0.4023	0.6042	0.065
Mof_C 	C 	0.8073	0.4617	0.4312	-0.032
Mof_H 	H 	0.7974	0.4303	0.3874	-0.004
Mof_C 	C 	0.8032	0.4525	0.575	0.022
Mof_H 	H 	0.7932	0.421	0.6182	0.024
Mof_C 	C 	0.8221	0.505	0.6383	-0.223
Mof_C 	C 	0.8309	0.5504	0.5884	0.018
Mof_H 	H 	0.8408	0.5818	0.6322	0.045
Mof_C 	C 	0.8301	0.5473	0.4466	-0.038
Mof_H 	H 	0.84	0.5787	0.4034	-0.007
Mof_N 	N 	0.01367	0.8359	0.6313	-0.203
Mof_N 	N 	0.8462	0.3512	0.635	0.241
Mof_N 	N 	0.8204	0.504	0.3804	0.196
Mof_O 	O 	0.94109	0.80758	0.8317	-0.397
Mof_O 	O 	0.85688	0.75024	0.8752	-0.284
Mof_O 	O 	0.96846	0.73453	0.8179	-0.3
Mof_O 	O 	0.91136	0.4253	0.8256	-0.37
Mof_O 	O 	0.85748	0.45724	0.8681	-0.385
Mof_O 	O 	0.93343	0.5564	0.8481	-0.331
Mof_O 	O 	0.2406	0.81284	0.805	-0.393
Mof_O 	O 	0.21204	0.72815	0.85001	-0.413
Mof_O 	O 	0.11261	0.70023	0.8184	-0.311
Mof_O 	O 	0.391	0.85094	0.8323	-0.415
Mof_O 	O 	0.47596	0.91214	0.8513	-0.38
Mof_O 	O 	0.36329	0.92482	0.8101	-0.299
Mof_O 	O 	0.4724	0.20124	0.8459	-0.383
Mof_O 	O 	0.41791	0.22978	0.8703	-0.42
Mof_O 	O 	0.39705	0.10067	0.83778	-0.291
Mof_O 	O 	0.09058	0.84928	0.8083	-0.426
Mof_O 	O 	0.12031	0.93248	0.8648	-0.324
Mof_O 	O 	0.21739	0.9573	0.8394	-0.233
Mof_Cu	Cu	0.01606	0.83227	0.81765	0.901
Mof_Cu	Cu	0.85293	0.34954	0.82367	1.069
Mof_Cu	Cu	0.83706	0.52192	0.83349	0.921
Mof_Cu	Cu	0.31563	0.829	0.80885	1.042
Mof_Cu	Cu	0.15656	0.64627	0.79566	1.03
Mof_O 	O 	0.84923	0.35495	0.0083	-0.78
Mof_O 	O 	0.824	0.51314	0.0105	-0.754
Mof_H 	H 	0.8323	0.3519	0.2915	-0.401
Mof_H 	H 	0.3171	0.822	0.2719	-0.197
Mof_C 	C 	0.794	0.3152	0.5776	0.017
Mof_H 	H 	0.7645	0.2927	0.6261	0.023
Mof_C 	C 	0.7857	0.3143	0.4511	0.023
Mof_H 	H 	0.7528	0.2927	0.4133	0.043
Mof_C 	C 	0.845	0.346	0.644	-0.291
Mof_H 	H 	0.8484	0.3449	0.7327	-0.356
Mof_C 	C 	0.884	0.3826	0.4393	-0.014
Mof_H 	H 	0.9134	0.4051	0.3908	0.011
Mof_C 	C 	0.8831	0.3803	0.5706	-0.031
Mof_H 	H 	0.916	0.4019	0.6084	-0.032
Mof_C 	C 	0.3515	0.8059	0.5458	0.021
Mof_H 	H 	0.3729	0.7959	0.5893	0.041
Mof_C 	C 	0.3478	0.8083	0.4264	-0.034
Mof_H 	H 	0.3692	0.7984	0.3829	0.004
Mof_C 	C 	0.3168	0.8196	0.625	-0.24
Mof_H 	H 	0.3168	0.8197	0.7146	-0.305
Mof_C 	C 	0.2877	0.8409	0.4348	-0.02
Mof_H 	H 	0.2662	0.8508	0.3914	-0.03
Mof_C 	C 	0.2866	0.8422	0.5575	0.018
Mof_H 	H 	0.2652	0.8522	0.601	0.045
Mof_N 	N 	0.8344	0.3508	0.3844	0.209
Mof_N 	N 	0.3162	0.8194	0.3613	0.135
Mof_H 	H 	0.8251	0.3253	0.0376	0.289
Mof_H 	H 	0.8792	0.3627	0.0401	0.276
Mof_H 	H 	0.3421	0.8394	0.0203	0.25
Mof_H 	H 	0.2941	0.8392	0.016	0.234
Mof_C 	C 	0.30267	0.28754	0.8257	0.406
Mof_C 	C 	0.35782	0.30763	0.8366	-0.468
Mof_H 	H 	0.3716	0.2847	0.8401	0.178
Mof_C 	C 	0.39062	0.36092	0.8395	0.42
Mof_C 	C 	0.36974	0.39566	0.8318	-0.477
Mof_H 	H 	0.3924	0.4324	0.8344	0.197
Mof_C 	C 	0.31551	0.37386	0.8228	0.432
Mof_C 	C 	0.28117	0.32145	0.8162	-0.485
Mof_H 	H 	0.2446	0.3077	0.8075	0.211
Mof_C 	C 	0.28422	0.19832	0.8349	-0.166
Mof_H 	H 	0.3055	0.2	0.763	0.088
Mof_H 	H 	0.3068	0.2083	0.9085	0.09
Mof_C 	C 	0.23928	0.14275	0.8523	0.362
Mof_C 	C 	0.48011	0.43013	0.833	-0.128
Mof_H 	H 	0.4766	0.4422	0.7507	0.076
Mof_H 	H 	0.4744	0.4511	0.8954	0.08
Mof_C 	C 	0.53522	0.43669	0.8476	0.353
Mof_C 	C 	0.24395	0.39334	0.8042	-0.195
Mof_H 	H 	0.2318	0.3782	0.7216	0.099
Mof_H 	H 	0.2241	0.366	0.8662	0.096
Mof_C 	C 	0.23599	0.43941	0.8247	0.395
Mof_C 	C 	0.03927	0.38485	0.8184	0.402
Mof_C 	C 	0.98505	0.36657	0.8215	-0.438
Mof_H 	H 	0.972	0.39	0.8153	0.193
Mof_C 	C 	0.95042	0.31061	0.8376	0.406
Mof_C 	C 	0.97124	0.27648	0.8359	-0.468
Mof_H 	H 	0.9484	0.2398	0.8406	0.22
Mof_C 	C 	0.02499	0.29687	0.831	0.42
Mof_C 	C 	0.05956	0.3502	0.8208	-0.471
Mof_H 	H 	0.0962	0.3639	0.8143	0.204
Mof_C 	C 	0.05721	0.47602	0.814	-0.193
Mof_H 	H 	0.0382	0.4739	0.7375	0.096
Mof_H 	H 	0.0327	0.4674	0.8836	0.101
Mof_C 	C 	0.10308	0.5307	0.8301	0.394
Mof_C 	C 	0.86197	0.24137	0.8425	-0.215
Mof_H 	H 	0.8645	0.2241	0.7672	0.105
Mof_H 	H 	0.8697	0.2256	0.9137	0.105
Mof_C 	C 	0.8073	0.23169	0.8547	0.422
Mof_C 	C 	0.09593	0.27781	0.8148	-0.144
Mof_H 	H 	0.1052	0.2914	0.7301	0.086
Mof_H 	H 	0.1184	0.306	0.8726	0.082
Mof_C 	C 	0.10296	0.22863	0.8353	0.399
Mof_C 	C 	0.14541	0.12907	0.5758	0.051
Mof_H 	H 	0.1376	0.0998	0.6259	0.011
Mof_C 	C 	0.13811	0.12223	0.4504	-0.1
Mof_H 	H 	0.1254	0.0887	0.4144	0.066
Mof_C 	C 	0.14869	0.16465	0.3736	0.018
Mof_H 	H 	0.1438	0.1605	0.2875	0.052
Mof_C 	C 	0.1682	0.21554	0.4279	-0.088
Mof_H 	H 	0.176	0.2448	0.3778	0.072
Mof_C 	C 	0.17632	0.22278	0.5551	0.04
Mof_H 	H 	0.1892	0.2565	0.5912	0.019
Mof_C 	C 	0.6816	0.4816	0.5854	-0.016
Mof_H 	H 	0.704	0.4745	0.6339	0.01
Mof_C 	C 	0.6783	0.4761	0.4622	-0.043
Mof_H 	H 	0.6999	0.4648	0.4243	-0.011
Mof_C 	C 	0.6489	0.4847	0.3807	-0.233
Mof_C 	C 	0.6165	0.4994	0.4368	-0.014
Mof_H 	H 	0.5941	0.5065	0.3884	0.012
Mof_C 	C 	0.6193	0.5153	0.5663	0.019
Mof_H 	H 	0.5977	0.5266	0.6042	0.065
Mof_C 	C 	0.5383	0.3456	0.4312	-0.032
Mof_H 	H 	0.5697	0.3671	0.3874	-0.004
Mof_C 	C 	0.5475	0.3507	0.575	0.022
Mof_H 	H 	0.579	0.3722	0.6182	0.024
Mof_C 	C 	0.495	0.3171	0.6383	-0.223
Mof_C 	C 	0.4496	0.2805	0.5884	0.018
Mof_H 	H 	0.4182	0.259	0.6322	0.045
Mof_C 	C 	0.4527	0.2828	0.4466	-0.038
Mof_H 	H 	0.4213	0.2613	0.4034	-0.007
Mof_N 	N 	0.1641	0.17777	0.6313	-0.204
Mof_N 	N 	0.6488	0.495	0.635	0.241
Mof_N 	N 	0.496	0.3164	0.3804	0.196
Mof_O 	O 	0.19242	0.13351	0.8317	-0.397
Mof_O 	O 	0.24976	0.10664	0.8752	-0.284
Mof_O 	O 	0.26547	0.23393	0.8179	-0.3
Mof_O 	O 	0.5747	0.48606	0.8256	-0.37
Mof_O 	O 	0.54276	0.40024	0.8681	-0.385
Mof_O 	O 	0.4436	0.37703	0.8481	-0.331
Mof_O 	O 	0.18716	0.42776	0.805	-0.393
Mof_O 	O 	0.27185	0.48389	0.85001	-0.413
Mof_O 	O 	0.29977	0.41238	0.8184	-0.311
Mof_O 	O 	0.14906	0.54006	0.8323	-0.415
Mof_O 	O 	0.08786	0.56382	0.8513	-0.38
Mof_O 	O 	0.07518	0.43847	0.8101	-0.299
Mof_O 	O 	0.79876	0.27116	0.8459	-0.383
Mof_O 	O 	0.77022	0.18813	0.8703	-0.42
Mof_O 	O 	0.89933	0.29638	0.83778	-0.291
Mof_O 	O 	0.15072	0.2413	0.8083	-0.426
Mof_O 	O 	0.06752	0.18783	0.8648	-0.325
Mof_O 	O 	0.0427	0.26009	0.8394	-0.233
Mof_Cu	Cu	0.16773	0.18379	0.81765	0.901
Mof_Cu	Cu	0.65046	0.50339	0.82367	1.069
Mof_Cu	Cu	0.47808	0.31514	0.83349	0.921
Mof_Cu	Cu	0.171	0.48663	0.80885	1.042
Mof_Cu	Cu	0.35373	0.51029	0.79566	1.03
Mof_O 	O 	0.64505	0.49428	0.0083	-0.78
Mof_O 	O 	0.48686	0.31086	0.0105	-0.755
Mof_H 	H 	0.6481	0.4804	0.2915	-0.401
Mof_H 	H 	0.178	0.4951	0.2719	-0.197
Mof_C 	C 	0.6848	0.4788	0.5776	0.017
Mof_H 	H 	0.7073	0.4718	0.6261	0.023
Mof_C 	C 	0.6857	0.4714	0.4511	0.023
Mof_H 	H 	0.7073	0.4601	0.4133	0.043
Mof_C 	C 	0.654	0.499	0.644	-0.291
Mof_H 	H 	0.6551	0.5035	0.7327	-0.356
Mof_C 	C 	0.6174	0.5014	0.4393	-0.014
Mof_H 	H 	0.5949	0.5083	0.3908	0.011
Mof_C 	C 	0.6197	0.5028	0.5706	-0.031
Mof_H 	H 	0.5981	0.5141	0.6084	-0.032
Mof_C 	C 	0.1941	0.5456	0.5458	0.021
Mof_H 	H 	0.2041	0.577	0.5893	0.041
Mof_C 	C 	0.1917	0.5395	0.4264	-0.034
Mof_H 	H 	0.2016	0.5708	0.3829	0.004
Mof_C 	C 	0.1804	0.4972	0.625	-0.24
Mof_H 	H 	0.1803	0.4971	0.7146	-0.305
Mof_C 	C 	0.1591	0.4468	0.4348	-0.02
Mof_H 	H 	0.1492	0.4154	0.3914	-0.03
Mof_C 	C 	0.1578	0.4444	0.5575	0.018
Mof_H 	H 	0.1478	0.413	0.601	0.045
Mof_N 	N 	0.6492	0.4836	0.3844	0.209
Mof_N 	N 	0.1806	0.4968	0.3613	0.135
Mof_H 	H 	0.6747	0.4998	0.0376	0.289
Mof_H 	H 	0.6373	0.5165	0.0401	0.276
Mof_H 	H 	0.1606	0.5027	0.0203	0.251
Mof_H 	H 	0.1608	0.4549	0.016	0.235
Mof_C 	C 	0.71246	0.01513	0.8257	0.405
Mof_C 	C 	0.69237	0.05019	0.8366	-0.467
Mof_H 	H 	0.7153	0.0869	0.8401	0.177
Mof_C 	C 	0.63908	0.0297	0.8395	0.418
Mof_C 	C 	0.60434	0.97408	0.8318	-0.474
Mof_H 	H 	0.5676	0.96	0.8344	0.196
Mof_C 	C 	0.62614	0.94165	0.8228	0.431
Mof_C 	C 	0.67855	0.95972	0.8162	-0.483
Mof_H 	H 	0.6923	0.9369	0.8075	0.21
Mof_C 	C 	0.80168	0.0859	0.8349	-0.166
Mof_H 	H 	0.8	0.1055	0.763	0.088
Mof_H 	H 	0.7917	0.0985	0.9085	0.09
Mof_C 	C 	0.85725	0.09653	0.8523	0.362
Mof_C 	C 	0.56987	0.04998	0.833	-0.128
Mof_H 	H 	0.5578	0.0344	0.7507	0.076
Mof_H 	H 	0.5489	0.0233	0.8954	0.08
Mof_C 	C 	0.56331	0.09853	0.8476	0.353
Mof_C 	C 	0.60666	0.85061	0.8042	-0.196
Mof_H 	H 	0.6218	0.8536	0.7216	0.099
Mof_H 	H 	0.634	0.8581	0.8662	0.096
Mof_C 	C 	0.56059	0.79658	0.8247	0.395
Mof_C 	C 	0.61515	0.65442	0.8184	0.4
Mof_C 	C 	0.63343	0.61848	0.8215	-0.436
Mof_H 	H 	0.61	0.582	0.8153	0.193
Mof_C 	C 	0.68939	0.63981	0.8376	0.405
Mof_C 	C 	0.72352	0.69476	0.8359	-0.466
Mof_H 	H 	0.7602	0.7086	0.8406	0.219
Mof_C 	C 	0.70313	0.72812	0.831	0.419
Mof_C 	C 	0.6498	0.70936	0.8208	-0.47
Mof_H 	H 	0.6361	0.7323	0.8143	0.203
Mof_C 	C 	0.52398	0.58119	0.814	-0.193
Mof_H 	H 	0.5261	0.5643	0.7375	0.096
Mof_H 	H 	0.5326	0.5653	0.8836	0.101
Mof_C 	C 	0.4693	0.57238	0.8301	0.394
Mof_C 	C 	0.75863	0.6206	0.8425	-0.215
Mof_H 	H 	0.7759	0.6404	0.7672	0.105
Mof_H 	H 	0.7744	0.6441	0.9137	0.106
Mof_C 	C 	0.76831	0.57561	0.8547	0.422
Mof_C 	C 	0.72219	0.81812	0.8148	-0.145
Mof_H 	H 	0.7086	0.8138	0.7301	0.086
Mof_H 	H 	0.694	0.8124	0.8726	0.082
Mof_C 	C 	0.77137	0.87433	0.8353	0.399
Mof_C 	C 	0.87093	0.01634	0.5758	0.05
Mof_H 	H 	0.9002	0.0378	0.6259	0.011
Mof_C 	C 	0.87777	0.01588	0.4504	-0.099
Mof_H 	H 	0.9113	0.0367	0.4144	0.066
Mof_C 	C 	0.83535	0.98404	0.3736	0.018
Mof_H 	H 	0.8395	0.9833	0.2875	0.052
Mof_C 	C 	0.78446	0.95266	0.4279	-0.087
Mof_H 	H 	0.7552	0.9312	0.3778	0.072
Mof_C 	C 	0.77722	0.95354	0.5551	0.04
Mof_H 	H 	0.7435	0.9327	0.5912	0.019
Mof_C 	C 	0.5184	0.2	0.5854	-0.016
Mof_H 	H 	0.5255	0.2295	0.6339	0.01
Mof_C 	C 	0.5239	0.2022	0.4622	-0.043
Mof_H 	H 	0.5352	0.2351	0.4243	-0.011
Mof_C 	C 	0.5153	0.1642	0.3807	-0.233
Mof_C 	C 	0.5006	0.1171	0.4368	-0.014
Mof_H 	H 	0.4935	0.0876	0.3884	0.012
Mof_C 	C 	0.4847	0.104	0.5663	0.019
Mof_H 	H 	0.4734	0.0711	0.6042	0.065
Mof_C 	C 	0.6544	0.1927	0.4312	-0.032
Mof_H 	H 	0.6329	0.2026	0.3874	-0.004
Mof_C 	C 	0.6493	0.1968	0.575	0.022
Mof_H 	H 	0.6278	0.2068	0.6182	0.024
Mof_C 	C 	0.6829	0.1779	0.6383	-0.223
Mof_C 	C 	0.7195	0.1691	0.5884	0.018
Mof_H 	H 	0.741	0.1592	0.6322	0.045
Mof_C 	C 	0.7172	0.1699	0.4466	-0.038
Mof_H 	H 	0.7387	0.16	0.4034	-0.007
Mof_N 	N 	0.82223	0.98633	0.6313	-0.204
Mof_N 	N 	0.505	0.1538	0.635	0.241
Mof_N 	N 	0.6836	0.1796	0.3804	0.196
Mof_O 	O 	0.86649	0.05891	0.8317	-0.397
Mof_O 	O 	0.89336	0.14312	0.8752	-0.284
Mof_O 	O 	0.76607	0.03154	0.8179	-0.3
Mof_O 	O 	0.51394	0.08864	0.8256	-0.37
Mof_O 	O 	0.59976	0.14252	0.8681	-0.385
Mof_O 	O 	0.62297	0.06657	0.8481	-0.331
Mof_O 	O 	0.57224	0.7594	0.805	-0.393
Mof_O 	O 	0.51611	0.78796	0.85001	-0.413
Mof_O 	O 	0.58762	0.88739	0.8184	-0.311
Mof_O 	O 	0.45994	0.609	0.8323	-0.415
Mof_O 	O 	0.43618	0.52404	0.8513	-0.38
Mof_O 	O 	0.56153	0.63671	0.8101	-0.299
Mof_O 	O 	0.72884	0.5276	0.8459	-0.383
Mof_O 	O 	0.81187	0.58209	0.8703	-0.42
Mof_O 	O 	0.70362	0.60295	0.83778	-0.291
Mof_O 	O 	0.7587	0.90942	0.8083	-0.426
Mof_O 	O 	0.81217	0.87969	0.8648	-0.325
Mof_O 	O 	0.73991	0.78261	0.8394	-0.233
Mof_Cu	Cu	0.81621	0.98394	0.81765	0.901
Mof_Cu	Cu	0.49661	0.14707	0.82367	1.069
Mof_Cu	Cu	0.68486	0.16294	0.83349	0.921
Mof_Cu	Cu	0.51337	0.68437	0.80885	1.042
Mof_Cu	Cu	0.48971	0.84344	0.79566	1.03
Mof_O 	O 	0.50572	0.15077	0.0083	-0.78
Mof_O 	O 	0.68914	0.176	0.0105	-0.752
Mof_H 	H 	0.5196	0.1677	0.2915	-0.401
Mof_H 	H 	0.5049	0.6829	0.2719	-0.197
Mof_C 	C 	0.5212	0.206	0.5776	0.017
Mof_H 	H 	0.5282	0.2355	0.6261	0.023
Mof_C 	C 	0.5286	0.2143	0.4511	0.023
Mof_H 	H 	0.5399	0.2472	0.4133	0.043
Mof_C 	C 	0.501	0.155	0.644	-0.291
Mof_H 	H 	0.4965	0.1516	0.7327	-0.356
Mof_C 	C 	0.4986	0.116	0.4393	-0.014
Mof_H 	H 	0.4917	0.0866	0.3908	0.011
Mof_C 	C 	0.4972	0.1169	0.5706	-0.031
Mof_H 	H 	0.4859	0.084	0.6084	-0.032
Mof_C 	C 	0.4544	0.6485	0.5458	0.021
Mof_H 	H 	0.423	0.6271	0.5893	0.041
Mof_C 	C 	0.4605	0.6522	0.4264	-0.034
Mof_H 	H 	0.4292	0.6308	0.3829	0.004
Mof_C 	C 	0.5028	0.6832	0.625	-0.24
Mof_H 	H 	0.5029	0.6832	0.7146	-0.305
Mof_C 	C 	0.5532	0.7123	0.4348	-0.02
Mof_H 	H 	0.5846	0.7338	0.3914	-0.03
Mof_C 	C 	0.5556	0.7134	0.5575	0.018
Mof_H 	H 	0.587	0.7348	0.601	0.045
Mof_N 	N 	0.5164	0.1656	0.3844	0.209
Mof_N 	N 	0.5032	0.6838	0.3613	0.135
Mof_H 	H 	0.5002	0.1749	0.0376	0.288
Mof_H 	H 	0.4835	0.1208	0.0401	0.276
Mof_H 	H 	0.4973	0.6579	0.0203	0.252
Mof_H 	H 	0.5451	0.7059	0.016	0.235
_end
