# CIF file generated by openbabel 2.4.1, see http://openbabel.sf.net
data_I
_chemical_name_common 'image0'
_cell_length_a 9.0061
_cell_length_b 31.498
_cell_length_c 15.78
_cell_angle_alpha 90
_cell_angle_beta 90.584
_cell_angle_gamma 90
_space_group_name_H-M_alt 'P 1'
_space_group_name_Hall 'P 1'
loop_
    _symmetry_equiv_pos_as_xyz
    x,y,z
loop_
    _atom_site_label
    _atom_site_type_symbol
    _atom_site_fract_x
    _atom_site_fract_y
    _atom_site_fract_z
    _atom_site_occupancy
    Ni1     Ni   0.29599   0.83636   0.47970   1.000
    N1      N    0.10970   0.80180   0.51910   1.000
    C1      C    0.95930   0.81450   0.50970   1.000
    H1      H    0.92510   0.84270   0.50060   1.000
    C2      C    0.86880   0.77780   0.51610   1.000
    H2      H    0.76350   0.77710   0.51210   1.000
    N2      N    0.96340   0.74230   0.52960   1.000
    C3      C    0.11230   0.75710   0.53150   1.000
    H3      H    0.19840   0.74010   0.53950   1.000
    C4      C    0.91060   0.70088   0.53010   1.000
    C5      C    0.96210   0.67329   0.59250   1.000
    H4      H    0.02720   0.68330   0.63580   1.000
    C6      C    0.91820   0.63097   0.59160   1.000
    H5      H    0.95340   0.61210   0.63430   1.000
    C7      C    0.82300   0.61625   0.52830   1.000
    C8      C    0.77150   0.64385   0.46590   1.000
    H6      H    0.70640   0.63380   0.42260   1.000
    C9      C    0.81530   0.68616   0.46670   1.000
    H7      H    0.78020   0.70500   0.42410   1.000
    C10     C    0.78210   0.57052   0.52800   1.000
    C11     C    0.71070   0.55296   0.59830   1.000
    H8      H    0.68980   0.57030   0.64600   1.000
    C12     C    0.67020   0.51015   0.59890   1.000
    C13     C    0.70250   0.48526   0.52870   1.000
    H9      H    0.67690   0.45600   0.52910   1.000
    C14     C    0.77130   0.50222   0.45800   1.000
    C15     C    0.81020   0.54485   0.45810   1.000
    H10     H    0.85680   0.55670   0.40980   1.000
    C16     C    0.59980   0.49127   0.67550   1.000
    C17     C    0.61610   0.50966   0.75500   1.000
    H11     H    0.66870   0.53570   0.76020   1.000
    C18     C    0.55780   0.49099   0.82670   1.000
    H12     H    0.57080   0.50420   0.88040   1.000
    C19     C    0.48030   0.45300   0.82020   1.000
    C20     C    0.45620   0.43501   0.74170   1.000
    H13     H    0.39930   0.40970   0.73640   1.000
    C21     C    0.51590   0.45412   0.67040   1.000
    H14     H    0.49900   0.44150   0.61640   1.000
    C22     C    0.40330   0.41487   0.02860   1.000
    H15     H    0.41330   0.41380   0.08850   1.000
    C23     C    0.47940   0.44093   0.97710   1.000
    H16     H    0.55280   0.46100   0.99370   1.000
    C24     C    0.32860   0.40161   0.90150   1.000
    H17     H    0.27740   0.38950   0.85450   1.000
    C25     C    0.80240   0.47552   0.38250   1.000
    C26     C    0.93270   0.48161   0.33610   1.000
    H18     H    0.00300   0.50220   0.35460   1.000
    C27     C    0.96020   0.45827   0.26410   1.000
    H19     H    0.04730   0.46350   0.23230   1.000
    C28     C    0.86140   0.42731   0.23820   1.000
    C29     C    0.73200   0.42003   0.28340   1.000
    H20     H    0.66380   0.39880   0.26550   1.000
    C30     C    0.70400   0.44424   0.35480   1.000
    H21     H    0.61560   0.43940   0.38570   1.000
    C31     C    0.87420   0.36509   0.04870   1.000
    H22     H    0.83490   0.35120   0.00000   1.000
    C32     C    0.79330   0.38591   0.10650   1.000
    H23     H    0.68830   0.38880   0.10700   1.000
    C33     C    0.02940   0.38970   0.14100   1.000
    H24     H    0.11860   0.39640   0.17070   1.000
    C34     C    0.14880   0.84471   0.29580   1.000
    C35     C    0.09310   0.81147   0.23490   1.000
    C36     C    0.03670   0.82262   0.15620   1.000
    H25     H    0.03110   0.85180   0.14140   1.000
    C37     C    0.98790   0.79238   0.09820   1.000
    C38     C    0.99640   0.74879   0.12110   1.000
    C39     C    0.05340   0.73794   0.19980   1.000
    H26     H    0.05940   0.70880   0.21510   1.000
    C40     C    0.10210   0.76839   0.25710   1.000
    H27     H    0.14230   0.76030   0.31130   1.000
    C41     C    0.94040   0.71495   0.06330   1.000
    N3      N    0.30910   0.39000   0.98093   1.000
    N4      N    0.43020   0.43282   0.89544   1.000
    N5      N    0.02310   0.36696   0.07055   1.000
    N6      N    0.89300   0.40224   0.16523   1.000
    N7      N    0.92630   0.80625   0.01940   1.000
    O1      O    0.20920   0.83011   0.36242   1.000
    O2      O    0.13340   0.88292   0.27788   1.000
    O3      O    0.91130   0.67835   0.09336   1.000
    O4      O    0.91610   0.72294   0.98559   1.000
    C42     C    0.93200   0.69990   0.52390   1.000
    C43     C    0.03060   0.66800   0.54820   1.000
    H28     H    0.12970   0.67500   0.56400   1.000
    C44     C    0.98410   0.62600   0.54950   1.000
    H29     H    0.05130   0.60420   0.56610   1.000
    C45     C    0.83910   0.61570   0.52640   1.000
    C46     C    0.74070   0.64760   0.50200   1.000
    H30     H    0.64160   0.64060   0.48620   1.000
    C47     C    0.78720   0.68960   0.50080   1.000
    H31     H    0.72000   0.71140   0.48410   1.000
    N8      N    0.11570   0.80020   0.51710   1.000
    C48     C    0.98040   0.81480   0.55220   1.000
    H32     H    0.95850   0.84320   0.56780   1.000
    C49     C    0.88340   0.77950   0.55960   1.000
    H33     H    0.78540   0.78010   0.58120   1.000
    N9      N    0.95880   0.74300   0.52920   1.000
    C50     C    0.10240   0.75580   0.50290   1.000
    H34     H    0.17650   0.73790   0.47990   1.000
    H35     H    0.94910   0.80060   0.04370   1.000
    N10     N    0.13300   0.74760   0.34400   1.000
    Ni2     Ni   0.20401   0.33636   0.02030   1.000
    N11     N    0.39030   0.30180   0.98090   1.000
    C51     C    0.54070   0.31450   0.99030   1.000
    H36     H    0.57490   0.34270   0.99940   1.000
    C52     C    0.63120   0.27780   0.98390   1.000
    H37     H    0.73650   0.27710   0.98790   1.000
    N12     N    0.53660   0.24230   0.97040   1.000
    C53     C    0.38770   0.25710   0.96850   1.000
    H38     H    0.30160   0.24010   0.96050   1.000
    C54     C    0.58940   0.20088   0.96990   1.000
    C55     C    0.53790   0.17329   0.90750   1.000
    H39     H    0.47280   0.18330   0.86420   1.000
    C56     C    0.58180   0.13097   0.90840   1.000
    H40     H    0.54660   0.11210   0.86570   1.000
    C57     C    0.67700   0.11625   0.97170   1.000
    C58     C    0.72850   0.14385   0.03410   1.000
    H41     H    0.79360   0.13380   0.07740   1.000
    C59     C    0.68470   0.18616   0.03330   1.000
    H42     H    0.71980   0.20500   0.07590   1.000
    C60     C    0.71790   0.07052   0.97200   1.000
    C61     C    0.78930   0.05296   0.90170   1.000
    H43     H    0.81020   0.07030   0.85400   1.000
    C62     C    0.82980   0.01015   0.90110   1.000
    C63     C    0.79750   0.98526   0.97130   1.000
    H44     H    0.82310   0.95600   0.97090   1.000
    C64     C    0.72870   0.00222   0.04200   1.000
    C65     C    0.68980   0.04485   0.04190   1.000
    H45     H    0.64320   0.05670   0.09020   1.000
    C66     C    0.90020   0.99127   0.82450   1.000
    C67     C    0.88390   0.00966   0.74500   1.000
    H46     H    0.83130   0.03570   0.73980   1.000
    C68     C    0.94220   0.99099   0.67330   1.000
    H47     H    0.92920   0.00420   0.61960   1.000
    C69     C    0.01970   0.95300   0.67980   1.000
    C70     C    0.04380   0.93501   0.75830   1.000
    H48     H    0.10070   0.90970   0.76360   1.000
    C71     C    0.98410   0.95412   0.82960   1.000
    H49     H    0.00100   0.94150   0.88360   1.000
    C72     C    0.09670   0.91487   0.47140   1.000
    H50     H    0.08670   0.91380   0.41150   1.000
    C73     C    0.02060   0.94093   0.52290   1.000
    H51     H    0.94720   0.96100   0.50630   1.000
    C74     C    0.17140   0.90161   0.59850   1.000
    H52     H    0.22260   0.88950   0.64550   1.000
    C75     C    0.69760   0.97552   0.11750   1.000
    C76     C    0.56730   0.98161   0.16390   1.000
    H53     H    0.49700   0.00220   0.14540   1.000
    C77     C    0.53980   0.95827   0.23590   1.000
    H54     H    0.45270   0.96350   0.26770   1.000
    C78     C    0.63860   0.92731   0.26180   1.000
    C79     C    0.76800   0.92003   0.21660   1.000
    H55     H    0.83620   0.89880   0.23450   1.000
    C80     C    0.79600   0.94424   0.14520   1.000
    H56     H    0.88440   0.93940   0.11430   1.000
    C81     C    0.62580   0.86509   0.45130   1.000
    H57     H    0.66510   0.85120   0.50000   1.000
    C82     C    0.70670   0.88591   0.39350   1.000
    H58     H    0.81170   0.88880   0.39300   1.000
    C83     C    0.47060   0.88970   0.35900   1.000
    H59     H    0.38140   0.89640   0.32930   1.000
    C84     C    0.35120   0.34471   0.20420   1.000
    C85     C    0.40690   0.31147   0.26510   1.000
    C86     C    0.46330   0.32262   0.34380   1.000
    H60     H    0.46890   0.35180   0.35860   1.000
    C87     C    0.51210   0.29238   0.40180   1.000
    C88     C    0.50360   0.24879   0.37890   1.000
    C89     C    0.44660   0.23794   0.30020   1.000
    H61     H    0.44060   0.20880   0.28490   1.000
    C90     C    0.39790   0.26839   0.24290   1.000
    H62     H    0.35770   0.26030   0.18870   1.000
    C91     C    0.55960   0.21495   0.43670   1.000
    N13     N    0.19090   0.89000   0.51907   1.000
    N14     N    0.06980   0.93282   0.60456   1.000
    N15     N    0.47690   0.86696   0.42945   1.000
    N16     N    0.60700   0.90224   0.33477   1.000
    N17     N    0.57370   0.30625   0.48060   1.000
    O5      O    0.29080   0.33011   0.13758   1.000
    O6      O    0.36660   0.38292   0.22212   1.000
    O7      O    0.58870   0.17835   0.40664   1.000
    O8      O    0.58390   0.22294   0.51441   1.000
    C92     C    0.56800   0.19990   0.97610   1.000
    C93     C    0.46940   0.16800   0.95180   1.000
    H63     H    0.37030   0.17500   0.93600   1.000
    C94     C    0.51590   0.12600   0.95050   1.000
    H64     H    0.44870   0.10420   0.93390   1.000
    C95     C    0.66090   0.11570   0.97360   1.000
    C96     C    0.75930   0.14760   0.99800   1.000
    H65     H    0.85840   0.14060   0.01380   1.000
    C97     C    0.71280   0.18960   0.99920   1.000
    H66     H    0.78000   0.21140   0.01590   1.000
    N18     N    0.38430   0.30020   0.98290   1.000
    C98     C    0.51960   0.31480   0.94780   1.000
    H67     H    0.54150   0.34320   0.93220   1.000
    C99     C    0.61660   0.27950   0.94040   1.000
    H68     H    0.71460   0.28010   0.91880   1.000
    N19     N    0.54120   0.24300   0.97080   1.000
    C100    C    0.39760   0.25580   0.99710   1.000
    H69     H    0.32350   0.23790   0.02010   1.000
    H70     H    0.55090   0.30060   0.45630   1.000
    N20     N    0.36700   0.24760   0.15600   1.000
    Ni3     Ni   0.70401   0.16364   0.52030   1.000
    N21     N    0.89030   0.19820   0.48090   1.000
    C101    C    0.04070   0.18550   0.49030   1.000
    H71     H    0.07490   0.15730   0.49940   1.000
    C102    C    0.13120   0.22220   0.48390   1.000
    H72     H    0.23650   0.22290   0.48790   1.000
    N22     N    0.03660   0.25770   0.47040   1.000
    C103    C    0.88770   0.24290   0.46850   1.000
    H73     H    0.80160   0.25990   0.46050   1.000
    C104    C    0.08940   0.29912   0.46990   1.000
    C105    C    0.03790   0.32671   0.40750   1.000
    H74     H    0.97280   0.31670   0.36420   1.000
    C106    C    0.08180   0.36903   0.40840   1.000
    H75     H    0.04660   0.38790   0.36570   1.000
    C107    C    0.17700   0.38375   0.47170   1.000
    C108    C    0.22850   0.35615   0.53410   1.000
    H76     H    0.29360   0.36620   0.57740   1.000
    C109    C    0.18470   0.31384   0.53330   1.000
    H77     H    0.21980   0.29500   0.57590   1.000
    C110    C    0.21790   0.42948   0.47200   1.000
    C111    C    0.28930   0.44704   0.40170   1.000
    H78     H    0.31020   0.42970   0.35400   1.000
    C112    C    0.32980   0.48985   0.40110   1.000
    C113    C    0.29750   0.51474   0.47130   1.000
    H79     H    0.32310   0.54400   0.47090   1.000
    C114    C    0.22870   0.49778   0.54200   1.000
    C115    C    0.18980   0.45515   0.54190   1.000
    H80     H    0.14320   0.44330   0.59020   1.000
    C116    C    0.40020   0.50873   0.32450   1.000
    C117    C    0.38390   0.49034   0.24500   1.000
    H81     H    0.33130   0.46430   0.23980   1.000
    C118    C    0.44220   0.50901   0.17330   1.000
    H82     H    0.42920   0.49580   0.11960   1.000
    C119    C    0.51970   0.54700   0.17980   1.000
    C120    C    0.54380   0.56499   0.25830   1.000
    H83     H    0.60070   0.59030   0.26360   1.000
    C121    C    0.48410   0.54588   0.32960   1.000
    H84     H    0.50100   0.55850   0.38360   1.000
    C122    C    0.59670   0.58513   0.97140   1.000
    H85     H    0.58670   0.58620   0.91150   1.000
    C123    C    0.52060   0.55907   0.02290   1.000
    H86     H    0.44720   0.53900   0.00630   1.000
    C124    C    0.67140   0.59839   0.09850   1.000
    H87     H    0.72260   0.61050   0.14550   1.000
    C125    C    0.19760   0.52448   0.61750   1.000
    C126    C    0.06730   0.51839   0.66390   1.000
    H88     H    0.99700   0.49780   0.64540   1.000
    C127    C    0.03980   0.54173   0.73590   1.000
    H89     H    0.95270   0.53650   0.76770   1.000
    C128    C    0.13860   0.57269   0.76180   1.000
    C129    C    0.26800   0.57997   0.71660   1.000
    H90     H    0.33620   0.60120   0.73450   1.000
    C130    C    0.29600   0.55576   0.64520   1.000
    H91     H    0.38440   0.56060   0.61430   1.000
    C131    C    0.12580   0.63491   0.95130   1.000
    H92     H    0.16510   0.64880   0.00000   1.000
    C132    C    0.20670   0.61409   0.89350   1.000
    H93     H    0.31170   0.61120   0.89300   1.000
    C133    C    0.97060   0.61030   0.85900   1.000
    H94     H    0.88140   0.60360   0.82930   1.000
    C134    C    0.85120   0.15529   0.70420   1.000
    C135    C    0.90690   0.18853   0.76510   1.000
    C136    C    0.96330   0.17738   0.84380   1.000
    H95     H    0.96890   0.14820   0.85860   1.000
    C137    C    0.01210   0.20762   0.90180   1.000
    C138    C    0.00360   0.25121   0.87890   1.000
    C139    C    0.94660   0.26206   0.80020   1.000
    H96     H    0.94060   0.29120   0.78490   1.000
    C140    C    0.89790   0.23161   0.74290   1.000
    H97     H    0.85770   0.23970   0.68870   1.000
    C141    C    0.05960   0.28505   0.93670   1.000
    N23     N    0.69090   0.61000   0.01907   1.000
    N24     N    0.56980   0.56718   0.10456   1.000
    N25     N    0.97690   0.63304   0.92945   1.000
    N26     N    0.10700   0.59776   0.83477   1.000
    N27     N    0.07370   0.19375   0.98060   1.000
    O9      O    0.79080   0.16989   0.63758   1.000
    O10     O    0.86660   0.11708   0.72212   1.000
    O11     O    0.08870   0.32165   0.90664   1.000
    O12     O    0.08390   0.27706   0.01441   1.000
    C142    C    0.06800   0.30010   0.47610   1.000
    C143    C    0.96940   0.33200   0.45180   1.000
    H98     H    0.87030   0.32500   0.43600   1.000
    C144    C    0.01590   0.37400   0.45050   1.000
    H99     H    0.94870   0.39580   0.43390   1.000
    C145    C    0.16090   0.38430   0.47360   1.000
    C146    C    0.25930   0.35240   0.49800   1.000
    H100    H    0.35840   0.35940   0.51380   1.000
    C147    C    0.21280   0.31040   0.49920   1.000
    H101    H    0.28000   0.28860   0.51590   1.000
    N28     N    0.88430   0.19980   0.48290   1.000
    C148    C    0.01960   0.18520   0.44780   1.000
    H102    H    0.04150   0.15680   0.43220   1.000
    C149    C    0.11660   0.22050   0.44040   1.000
    H103    H    0.21460   0.21990   0.41880   1.000
    N29     N    0.04120   0.25700   0.47080   1.000
    C150    C    0.89760   0.24420   0.49710   1.000
    H104    H    0.82350   0.26210   0.52010   1.000
    H105    H    0.05090   0.19940   0.95630   1.000
    N30     N    0.86700   0.25240   0.65600   1.000
    Ni4     Ni   0.79599   0.66364   0.97970   1.000
    N31     N    0.60970   0.69820   0.01910   1.000
    C151    C    0.45930   0.68550   0.00970   1.000
    H106    H    0.42510   0.65730   0.00060   1.000
    C152    C    0.36880   0.72220   0.01610   1.000
    H107    H    0.26350   0.72290   0.01210   1.000
    N32     N    0.46340   0.75770   0.02960   1.000
    C153    C    0.61230   0.74290   0.03150   1.000
    H108    H    0.69840   0.75990   0.03950   1.000
    C154    C    0.41060   0.79912   0.03010   1.000
    C155    C    0.46210   0.82671   0.09250   1.000
    H109    H    0.52720   0.81670   0.13580   1.000
    C156    C    0.41820   0.86903   0.09160   1.000
    H110    H    0.45340   0.88790   0.13430   1.000
    C157    C    0.32300   0.88375   0.02830   1.000
    C158    C    0.27150   0.85615   0.96590   1.000
    H111    H    0.20640   0.86620   0.92260   1.000
    C159    C    0.31530   0.81384   0.96670   1.000
    H112    H    0.28020   0.79500   0.92410   1.000
    C160    C    0.28210   0.92948   0.02800   1.000
    C161    C    0.21070   0.94704   0.09830   1.000
    H113    H    0.18980   0.92970   0.14600   1.000
    C162    C    0.17020   0.98985   0.09890   1.000
    C163    C    0.20250   0.01474   0.02870   1.000
    H114    H    0.17690   0.04400   0.02910   1.000
    C164    C    0.27130   0.99778   0.95800   1.000
    C165    C    0.31020   0.95515   0.95810   1.000
    H115    H    0.35680   0.94330   0.90980   1.000
    C166    C    0.09980   0.00873   0.17550   1.000
    C167    C    0.11610   0.99034   0.25500   1.000
    H116    H    0.16870   0.96430   0.26020   1.000
    C168    C    0.05780   0.00901   0.32670   1.000
    H117    H    0.07080   0.99580   0.38040   1.000
    C169    C    0.98030   0.04700   0.32020   1.000
    C170    C    0.95620   0.06499   0.24170   1.000
    H118    H    0.89930   0.09030   0.23640   1.000
    C171    C    0.01590   0.04588   0.17040   1.000
    H119    H    0.99900   0.05850   0.11640   1.000
    C172    C    0.90330   0.08513   0.52860   1.000
    H120    H    0.91330   0.08620   0.58850   1.000
    C173    C    0.97940   0.05907   0.47710   1.000
    H121    H    0.05280   0.03900   0.49370   1.000
    C174    C    0.82860   0.09839   0.40150   1.000
    H122    H    0.77740   0.11050   0.35450   1.000
    C175    C    0.30240   0.02448   0.88250   1.000
    C176    C    0.43270   0.01839   0.83610   1.000
    H123    H    0.50300   0.99780   0.85460   1.000
    C177    C    0.46020   0.04173   0.76410   1.000
    H124    H    0.54730   0.03650   0.73230   1.000
    C178    C    0.36140   0.07269   0.73820   1.000
    C179    C    0.23200   0.07997   0.78340   1.000
    H125    H    0.16380   0.10120   0.76550   1.000
    C180    C    0.20400   0.05576   0.85480   1.000
    H126    H    0.11560   0.06060   0.88570   1.000
    C181    C    0.37420   0.13491   0.54870   1.000
    H127    H    0.33490   0.14880   0.50000   1.000
    C182    C    0.29330   0.11409   0.60650   1.000
    H128    H    0.18830   0.11120   0.60700   1.000
    C183    C    0.52940   0.11030   0.64100   1.000
    H129    H    0.61860   0.10360   0.67070   1.000
    C184    C    0.64880   0.65529   0.79580   1.000
    C185    C    0.59310   0.68853   0.73490   1.000
    C186    C    0.53670   0.67738   0.65620   1.000
    H130    H    0.53110   0.64820   0.64140   1.000
    C187    C    0.48790   0.70762   0.59820   1.000
    C188    C    0.49640   0.75121   0.62110   1.000
    C189    C    0.55340   0.76206   0.69980   1.000
    H131    H    0.55940   0.79120   0.71510   1.000
    C190    C    0.60210   0.73161   0.75710   1.000
    H132    H    0.64230   0.73970   0.81130   1.000
    C191    C    0.44040   0.78505   0.56330   1.000
    N33     N    0.80910   0.11000   0.48093   1.000
    N34     N    0.93020   0.06718   0.39544   1.000
    N35     N    0.52310   0.13304   0.57055   1.000
    N36     N    0.39300   0.09776   0.66523   1.000
    N37     N    0.42630   0.69375   0.51940   1.000
    O13     O    0.70920   0.66989   0.86242   1.000
    O14     O    0.63340   0.61708   0.77788   1.000
    O15     O    0.41130   0.82165   0.59336   1.000
    O16     O    0.41610   0.77706   0.48559   1.000
    C192    C    0.43200   0.80010   0.02390   1.000
    C193    C    0.53060   0.83200   0.04820   1.000
    H133    H    0.62970   0.82500   0.06400   1.000
    C194    C    0.48410   0.87400   0.04950   1.000
    H134    H    0.55130   0.89580   0.06610   1.000
    C195    C    0.33910   0.88430   0.02640   1.000
    C196    C    0.24070   0.85240   0.00200   1.000
    H135    H    0.14160   0.85940   0.98620   1.000
    C197    C    0.28720   0.81040   0.00080   1.000
    H136    H    0.22000   0.78860   0.98410   1.000
    N38     N    0.61570   0.69980   0.01710   1.000
    C198    C    0.48040   0.68520   0.05220   1.000
    H137    H    0.45850   0.65680   0.06780   1.000
    C199    C    0.38340   0.72050   0.05960   1.000
    H138    H    0.28540   0.71990   0.08120   1.000
    N39     N    0.45880   0.75700   0.02920   1.000
    C200    C    0.60240   0.74420   0.00290   1.000
    H139    H    0.67650   0.76210   0.97990   1.000
    H140    H    0.44910   0.69940   0.54370   1.000
    N40     N    0.63300   0.75240   0.84400   1.000
