# CIF file generated by openbabel 2.4.1, see http://openbabel.sf.net
data_I
_chemical_name_common 'image0'
_cell_length_a 12.051
_cell_length_b 18.59
_cell_length_c 19.726
_cell_angle_alpha 90
_cell_angle_beta 116.94
_cell_angle_gamma 90
_space_group_name_H-M_alt 'P 1'
_space_group_name_Hall 'P 1'
loop_
    _symmetry_equiv_pos_as_xyz
    x,y,z
loop_
    _atom_site_label
    _atom_site_type_symbol
    _atom_site_fract_x
    _atom_site_fract_y
    _atom_site_fract_z
    _atom_site_occupancy
    Dy1     Dy   0.17172   0.27473   0.21246   1.000
    Dy2     Dy   0.18254   0.70983   0.22729   1.000
    K1      K    0.18103   0.49215   0.21827   1.000
    O1      O    0.52870   0.67320   0.33680   1.000
    O2      O    0.34250   0.62280   0.27060   1.000
    O3      O    0.44130   0.49040   0.29790   1.000
    O4      O    0.33590   0.35840   0.26290   1.000
    O5      O    0.52060   0.30510   0.32340   1.000
    O6      O    0.16110   0.68250   0.02960   1.000
    O7      O    0.15350   0.62650   0.12770   1.000
    O8      O    0.15600   0.49680   0.06910   1.000
    O9      O    0.15000   0.36400   0.11890   1.000
    O10     O    0.16040   0.31340   0.01880   1.000
    O11     O    0.91260   0.67590   0.25980   1.000
    O12     O    0.04810   0.62100   0.23040   1.000
    O13     O    0.89660   0.30780   0.24040   1.000
    O14     O    0.03950   0.36460   0.21780   1.000
    O15     O    0.96200   0.49270   0.23630   1.000
    C1      C    0.45980   0.62090   0.31040   1.000
    C2      C    0.51600   0.54840   0.32720   1.000
    C3      C    0.63410   0.52610   0.37290   1.000
    H1      H    0.70240   0.55540   0.40060   1.000
    C4      C    0.63400   0.45010   0.37050   1.000
    H2      H    0.70190   0.41980   0.39590   1.000
    C5      C    0.51460   0.42990   0.32360   1.000
    C6      C    0.45370   0.35960   0.30220   1.000
    C7      C    0.15320   0.62770   0.06420   1.000
    C8      C    0.15170   0.55680   0.02800   1.000
    C9      C    0.14910   0.53790   0.96280   1.000
    H3      H    0.14930   0.56920   0.92600   1.000
    C10     C    0.14590   0.46210   0.95830   1.000
    H4      H    0.13920   0.43400   0.91760   1.000
    C11     C    0.15450   0.43890   0.02550   1.000
    C12     C    0.15570   0.36590   0.05680   1.000
    C13     C    0.96020   0.62100   0.24650   1.000
    C14     C    0.90730   0.55050   0.25210   1.000
    C15     C    0.81750   0.52980   0.26840   1.000
    H5      H    0.76580   0.55930   0.27970   1.000
    C16     C    0.81550   0.45260   0.26520   1.000
    H6      H    0.76290   0.42230   0.27500   1.000
    C17     C    0.90340   0.43260   0.24580   1.000
    C18     C    0.95030   0.36250   0.23370   1.000
    O16     O    0.27420   0.44080   0.37610   1.000
    O17     O    0.21400   0.29300   0.34400   1.000
    O18     O    0.35200   0.19000   0.46200   1.000
    O19     O    0.35600   0.21600   0.44500   1.000
    O20     O    0.31500   0.41500   0.41500   1.000
    O21     O    0.28700   0.51000   0.38550   1.000
    O22     O    0.47000   0.55300   0.48700   1.000
    C19     C    0.30000   0.27100   0.40500   1.000
    C20     C    0.34400   0.34800   0.43800   1.000
    C21     C    0.46100   0.32700   0.49300   1.000
    H7      H    0.51470   0.28920   0.52300   1.000
    C22     C    0.53100   0.38900   0.51400   1.000
    H8      H    0.60280   0.41290   0.55150   1.000
    C23     C    0.43000   0.43000   0.46300   1.000
    C24     C    0.39100   0.50900   0.44310   1.000
    O23     O    0.21220   0.29360   0.34510   1.000
    Dy3     Dy   0.82828   0.77473   0.28754   1.000
    Dy4     Dy   0.81746   0.20983   0.27271   1.000
    K2      K    0.81897   0.99215   0.28173   1.000
    O24     O    0.47130   0.17320   0.16320   1.000
    O25     O    0.65750   0.12280   0.22940   1.000
    O26     O    0.55870   0.99040   0.20210   1.000
    O27     O    0.66410   0.85840   0.23710   1.000
    O28     O    0.47940   0.80510   0.17660   1.000
    O29     O    0.83890   0.18250   0.47040   1.000
    O30     O    0.84650   0.12650   0.37230   1.000
    O31     O    0.84400   0.99680   0.43090   1.000
    O32     O    0.85000   0.86400   0.38110   1.000
    O33     O    0.83960   0.81340   0.48120   1.000
    O34     O    0.08740   0.17590   0.24020   1.000
    O35     O    0.95190   0.12100   0.26960   1.000
    O36     O    0.10340   0.80780   0.25960   1.000
    O37     O    0.96050   0.86460   0.28220   1.000
    O38     O    0.03800   0.99270   0.26370   1.000
    C25     C    0.54020   0.12090   0.18960   1.000
    C26     C    0.48400   0.04840   0.17280   1.000
    C27     C    0.36590   0.02610   0.12710   1.000
    H9      H    0.29760   0.05540   0.09940   1.000
    C28     C    0.36600   0.95010   0.12950   1.000
    H10     H    0.29810   0.91980   0.10410   1.000
    C29     C    0.48540   0.92990   0.17640   1.000
    C30     C    0.54630   0.85960   0.19780   1.000
    C31     C    0.84680   0.12770   0.43580   1.000
    C32     C    0.84830   0.05680   0.47200   1.000
    C33     C    0.85090   0.03790   0.53720   1.000
    H11     H    0.85070   0.06920   0.57400   1.000
    C34     C    0.85410   0.96210   0.54170   1.000
    H12     H    0.86080   0.93400   0.58240   1.000
    C35     C    0.84550   0.93890   0.47450   1.000
    C36     C    0.84430   0.86590   0.44320   1.000
    C37     C    0.03980   0.12100   0.25350   1.000
    C38     C    0.09270   0.05050   0.24790   1.000
    C39     C    0.18250   0.02980   0.23160   1.000
    H13     H    0.23420   0.05930   0.22030   1.000
    C40     C    0.18450   0.95260   0.23480   1.000
    H14     H    0.23710   0.92230   0.22500   1.000
    C41     C    0.09660   0.93260   0.25420   1.000
    C42     C    0.04970   0.86250   0.26630   1.000
    O39     O    0.72580   0.94080   0.12390   1.000
    O40     O    0.78600   0.79300   0.15600   1.000
    O41     O    0.64800   0.69000   0.03800   1.000
    O42     O    0.64400   0.71600   0.05500   1.000
    O43     O    0.68500   0.91500   0.08500   1.000
    O44     O    0.71300   0.01000   0.11450   1.000
    O45     O    0.53000   0.05300   0.01300   1.000
    C43     C    0.70000   0.77100   0.09500   1.000
    C44     C    0.65600   0.84800   0.06200   1.000
    C45     C    0.53900   0.82700   0.00700   1.000
    H15     H    0.48530   0.78920   0.97700   1.000
    C46     C    0.46900   0.88900   0.98600   1.000
    H16     H    0.39720   0.91290   0.94850   1.000
    C47     C    0.57000   0.93000   0.03700   1.000
    C48     C    0.60900   0.00900   0.05690   1.000
    O46     O    0.78780   0.79360   0.15490   1.000
    Dy5     Dy   0.82828   0.72528   0.78754   1.000
    Dy6     Dy   0.81746   0.29017   0.77271   1.000
    K3      K    0.81897   0.50785   0.78173   1.000
    O47     O    0.47130   0.32680   0.66320   1.000
    O48     O    0.65750   0.37720   0.72940   1.000
    O49     O    0.55870   0.50960   0.70210   1.000
    O50     O    0.66410   0.64160   0.73710   1.000
    O51     O    0.47940   0.69490   0.67660   1.000
    O52     O    0.83890   0.31750   0.97040   1.000
    O53     O    0.84650   0.37350   0.87230   1.000
    O54     O    0.84400   0.50320   0.93090   1.000
    O55     O    0.85000   0.63600   0.88110   1.000
    O56     O    0.83960   0.68660   0.98120   1.000
    O57     O    0.08740   0.32410   0.74020   1.000
    O58     O    0.95190   0.37900   0.76960   1.000
    O59     O    0.10340   0.69220   0.75960   1.000
    O60     O    0.96050   0.63540   0.78220   1.000
    O61     O    0.03800   0.50730   0.76370   1.000
    C49     C    0.54020   0.37910   0.68960   1.000
    C50     C    0.48400   0.45160   0.67280   1.000
    C51     C    0.36590   0.47390   0.62710   1.000
    H17     H    0.29760   0.44460   0.59940   1.000
    C52     C    0.36600   0.54990   0.62950   1.000
    H18     H    0.29810   0.58020   0.60410   1.000
    C53     C    0.48540   0.57010   0.67640   1.000
    C54     C    0.54630   0.64040   0.69780   1.000
    C55     C    0.84680   0.37230   0.93580   1.000
    C56     C    0.84830   0.44320   0.97200   1.000
    C57     C    0.85090   0.46210   0.03720   1.000
    H19     H    0.85070   0.43080   0.07400   1.000
    C58     C    0.85410   0.53790   0.04170   1.000
    H20     H    0.86080   0.56600   0.08240   1.000
    C59     C    0.84550   0.56110   0.97450   1.000
    C60     C    0.84430   0.63410   0.94320   1.000
    C61     C    0.03980   0.37900   0.75350   1.000
    C62     C    0.09270   0.44950   0.74790   1.000
    C63     C    0.18250   0.47020   0.73160   1.000
    H21     H    0.23420   0.44070   0.72030   1.000
    C64     C    0.18450   0.54740   0.73480   1.000
    H22     H    0.23710   0.57770   0.72500   1.000
    C65     C    0.09660   0.56740   0.75420   1.000
    C66     C    0.04970   0.63750   0.76630   1.000
    O62     O    0.72580   0.55920   0.62390   1.000
    O63     O    0.78600   0.70700   0.65600   1.000
    O64     O    0.64800   0.81000   0.53800   1.000
    O65     O    0.64400   0.78400   0.55500   1.000
    O66     O    0.68500   0.58500   0.58500   1.000
    O67     O    0.71300   0.49000   0.61450   1.000
    O68     O    0.53000   0.44700   0.51300   1.000
    C67     C    0.70000   0.72900   0.59500   1.000
    C68     C    0.65600   0.65200   0.56200   1.000
    C69     C    0.53900   0.67300   0.50700   1.000
    H23     H    0.48530   0.71080   0.47700   1.000
    C70     C    0.46900   0.61100   0.48600   1.000
    H24     H    0.39720   0.58710   0.44850   1.000
    C71     C    0.57000   0.57000   0.53700   1.000
    C72     C    0.60900   0.49100   0.55690   1.000
    O69     O    0.78780   0.70640   0.65490   1.000
    Dy7     Dy   0.17172   0.22528   0.71246   1.000
    Dy8     Dy   0.18254   0.79017   0.72729   1.000
    K4      K    0.18103   0.00785   0.71827   1.000
    O70     O    0.52870   0.82680   0.83680   1.000
    O71     O    0.34250   0.87720   0.77060   1.000
    O72     O    0.44130   0.00960   0.79790   1.000
    O73     O    0.33590   0.14160   0.76290   1.000
    O74     O    0.52060   0.19490   0.82340   1.000
    O75     O    0.16110   0.81750   0.52960   1.000
    O76     O    0.15350   0.87350   0.62770   1.000
    O77     O    0.15600   0.00320   0.56910   1.000
    O78     O    0.15000   0.13600   0.61890   1.000
    O79     O    0.16040   0.18660   0.51880   1.000
    O80     O    0.91260   0.82410   0.75980   1.000
    O81     O    0.04810   0.87900   0.73040   1.000
    O82     O    0.89660   0.19220   0.74040   1.000
    O83     O    0.03950   0.13540   0.71780   1.000
    O84     O    0.96200   0.00730   0.73630   1.000
    C73     C    0.45980   0.87910   0.81040   1.000
    C74     C    0.51600   0.95160   0.82720   1.000
    C75     C    0.63410   0.97390   0.87290   1.000
    H25     H    0.70240   0.94460   0.90060   1.000
    C76     C    0.63400   0.04990   0.87050   1.000
    H26     H    0.70190   0.08020   0.89590   1.000
    C77     C    0.51460   0.07010   0.82360   1.000
    C78     C    0.45370   0.14040   0.80220   1.000
    C79     C    0.15320   0.87230   0.56420   1.000
    C80     C    0.15170   0.94320   0.52800   1.000
    C81     C    0.14910   0.96210   0.46280   1.000
    H27     H    0.14930   0.93080   0.42600   1.000
    C82     C    0.14590   0.03790   0.45830   1.000
    H28     H    0.13920   0.06600   0.41760   1.000
    C83     C    0.15450   0.06110   0.52550   1.000
    C84     C    0.15570   0.13410   0.55680   1.000
    C85     C    0.96020   0.87900   0.74650   1.000
    C86     C    0.90730   0.94950   0.75210   1.000
    C87     C    0.81750   0.97020   0.76840   1.000
    H29     H    0.76580   0.94070   0.77970   1.000
    C88     C    0.81550   0.04740   0.76520   1.000
    H30     H    0.76290   0.07770   0.77500   1.000
    C89     C    0.90340   0.06740   0.74580   1.000
    C90     C    0.95030   0.13750   0.73370   1.000
    O85     O    0.27420   0.05920   0.87610   1.000
    O86     O    0.21400   0.20700   0.84400   1.000
    O87     O    0.35200   0.31000   0.96200   1.000
    O88     O    0.35600   0.28400   0.94500   1.000
    O89     O    0.31500   0.08500   0.91500   1.000
    O90     O    0.28700   0.99000   0.88550   1.000
    O91     O    0.47000   0.94700   0.98700   1.000
    C91     C    0.30000   0.22900   0.90500   1.000
    C92     C    0.34400   0.15200   0.93800   1.000
    C93     C    0.46100   0.17300   0.99300   1.000
    H31     H    0.51470   0.21080   0.02300   1.000
    C94     C    0.53100   0.11100   0.01400   1.000
    H32     H    0.60280   0.08710   0.05150   1.000
    C95     C    0.43000   0.07000   0.96300   1.000
    C96     C    0.39100   0.99100   0.94310   1.000
    O92     O    0.21220   0.20640   0.84510   1.000
