data_functionalizedCrystal
_audit_creation_method	'EQeq! by Chris Wilmer'
_symmetry_space_group_name_H-M	'P1'
_symmetry_Int_Tables_number	1
_symmetry_cell_setting	triclinic
loop_
_symmetry_equiv_pos_as_xyz
  x,y,z
_cell_length_a	15.7377
_cell_length_b	21.1254
_cell_length_c	11.7487
_cell_angle_alpha	90
_cell_angle_beta	90
_cell_angle_gamma	90
loop_
_atom_site_label
_atom_site_type_symbol
_atom_site_fract_x
_atom_site_fract_y
_atom_site_fract_z
_atom_site_charge
Mof_Cd	Cd	0.25157	0.41183	0.36997	0.46
Mof_C 	C 	0.2534	0.4126	0.9321	0.068
Mof_N 	N 	0.2461	0.4106	0.1711	-0.147
Mof_N 	N 	0.2629	0.4133	0.5683	-0.135
Mof_C 	C 	0.2591	0.4127	0.8106	0.013
Mof_O 	O 	0.7836	0.4802	0.3564	-0.267
Mof_O 	O 	0.8744	0.1405	0.6599	-0.287
Mof_O 	O 	0.6472	0.4966	0.3838	-0.298
Mof_O 	O 	0.9972	0.1102	0.5837	-0.288
Mof_C 	C 	0.7096	0.4607	0.3692	0.305
Mof_C 	C 	0.2238	0.4607	0.1139	0.082
Mof_H 	H 	0.2048	0.4958	0.1545	0.019
Mof_C 	C 	0.4713	0.45	0.1378	0.064
Mof_H 	H 	0.4489	0.4159	0.1779	0.027
Mof_C 	C 	0.4738	0.4472	0.02	-0.121
Mof_H 	H 	0.4582	0.4105	0.9814	0.073
Mof_C 	C 	0.2709	0.3604	0.1121	0.08
Mof_H 	H 	0.2877	0.3244	0.1517	0.02
Mof_C 	C 	0.2267	0.465	0.9936	-0.138
Mof_H 	H 	0.211	0.5022	0.9567	0.077
Mof_C 	C 	0.0337	0.2959	0.4562	-0.082
Mof_C 	C 	0.5197	0.4491	0.6535	0.1
Mof_H 	H 	0.533	0.4124	0.6137	0.015
Mof_C 	C 	0.2514	0.3578	0.7458	-0.069
Mof_H 	H 	0.2449	0.319	0.7825	0.045
Mof_C 	C 	0.2693	0.4683	0.7475	-0.023
Mof_H 	H 	0.2728	0.5072	0.7845	0.04
Mof_C 	C 	0.2743	0.4655	0.6299	-0.003
Mof_H 	H 	0.2865	0.5028	0.5911	0.049
Mof_C 	C 	0.2532	0.3596	0.6277	0.024
Mof_H 	H 	0.2473	0.3218	0.5878	0.028
Mof_C 	C 	0.3047	0.3716	0.63	0.007
Mof_H 	H 	0.3363	0.3414	0.5912	0.028
Mof_C 	C 	0.3057	0.3684	0.748	-0.027
Mof_H 	H 	0.3371	0.3373	0.7852	0.032
Mof_C 	C 	0.219	0.4564	0.739	-0.065
Mof_H 	H 	0.1862	0.4871	0.7755	0.053
Mof_C 	C 	0.2213	0.4598	0.62	0.028
Mof_H 	H 	0.1955	0.4924	0.5798	0.041
Mof_O 	O 	0.1787	0.2885	0.4023	-0.272
Mof_C 	C 	0.5216	0.4476	0.7702	-0.16
Mof_H 	H 	0.5376	0.4109	0.8082	0.088
Mof_O 	O 	0.1176	0.3803	0.3898	-0.281
Mof_C 	C 	0.9402	0.1492	0.6005	0.315
Mof_C 	C 	0.273	0.3589	0.9924	-0.14
Mof_H 	H 	0.2876	0.3218	0.9544	0.074
Mof_N 	N 	0.7682	0.3526	0.3826	-0.12
Mof_C 	C 	0.9504	0.215	0.5503	-0.069
Mof_O 	O 	0.7772	0.382	0.5639	-0.223
Mof_C 	C 	0.0271	0.2354	0.5054	0.002
Mof_H 	H 	0.0744	0.209	0.5079	0.049
Mof_C 	C 	0.8797	0.2536	0.5461	-0.013
Mof_H 	H 	0.8289	0.2405	0.5788	0.065
Mof_C 	C 	0.1171	0.3222	0.4124	0.32
Mof_C 	C 	0.8846	0.312	0.4931	-0.044
Mof_C 	C 	0.6929	0.3901	0.3633	-0.051
Mof_H 	H 	0.6484	0.3783	0.4178	0.076
Mof_C 	C 	0.8043	0.3522	0.4835	0.215
Mof_C 	C 	0.96	0.332	0.4465	0.005
Mof_H 	H 	0.9619	0.3703	0.4076	0.057
Mof_C 	C 	0.6655	0.3713	0.2397	-0.138
Mof_H 	H 	0.6041	0.3687	0.233	0.031
Mof_H 	H 	0.6869	0.4013	0.1841	0.057
Mof_H 	H 	0.6202	0.3401	0.2421	0.058
Mof_H 	H 	0.6451	0.4082	0.1988	0.033
Mof_C 	C 	0.795	0.3177	0.2828	-0.07
Mof_H 	H 	0.8213	0.2776	0.3024	0.017
Mof_H 	H 	0.8332	0.3422	0.2353	0.047
Mof_H 	H 	0.7844	0.2728	0.2924	0.04
Mof_H 	H 	0.8552	0.324	0.2688	0.022
Mof_C 	C 	0.7053	0.3086	0.226	-0.041
Mof_H 	H 	0.7108	0.2975	0.1461	0.023
Mof_H 	H 	0.6728	0.2761	0.2645	0.039
Mof_C 	C 	0.741	0.345	0.183	-0.035
Mof_H 	H 	0.7723	0.3773	0.1419	0.034
Mof_H 	H 	0.7255	0.3115	0.1296	0.016
Mof_Cd	Cd	0.74843	0.58817	0.36997	0.462
Mof_C 	C 	0.7466	0.5874	0.9321	0.07
Mof_N 	N 	0.7539	0.5894	0.1711	-0.146
Mof_N 	N 	0.7371	0.5867	0.5683	-0.134
Mof_C 	C 	0.7409	0.5873	0.8106	0.015
Mof_O 	O 	0.2164	0.5198	0.3564	-0.267
Mof_O 	O 	0.1256	0.8595	0.6599	-0.288
Mof_O 	O 	0.3528	0.5034	0.3838	-0.297
Mof_O 	O 	0.0028	0.8898	0.5837	-0.296
Mof_C 	C 	0.2904	0.5393	0.3692	0.305
Mof_C 	C 	0.7762	0.5393	0.1139	0.083
Mof_H 	H 	0.7952	0.5042	0.1545	0.019
Mof_C 	C 	0.5287	0.55	0.1378	0.064
Mof_H 	H 	0.5511	0.5841	0.1779	0.027
Mof_C 	C 	0.5262	0.5528	0.02	-0.121
Mof_H 	H 	0.5418	0.5895	0.9814	0.073
Mof_C 	C 	0.7291	0.6396	0.1121	0.081
Mof_H 	H 	0.7123	0.6756	0.1517	0.021
Mof_C 	C 	0.7733	0.535	0.9936	-0.138
Mof_H 	H 	0.789	0.4978	0.9567	0.078
Mof_C 	C 	0.9663	0.7041	0.4562	-0.069
Mof_C 	C 	0.4803	0.5509	0.6535	0.1
Mof_H 	H 	0.467	0.5876	0.6137	0.015
Mof_C 	C 	0.7486	0.6422	0.7458	-0.068
Mof_H 	H 	0.7551	0.681	0.7825	0.045
Mof_C 	C 	0.7307	0.5317	0.7475	-0.025
Mof_H 	H 	0.7272	0.4928	0.7845	0.041
Mof_C 	C 	0.7257	0.5345	0.6299	-0.005
Mof_H 	H 	0.7135	0.4972	0.5911	0.049
Mof_C 	C 	0.7468	0.6404	0.6277	0.026
Mof_H 	H 	0.7527	0.6782	0.5878	0.028
Mof_C 	C 	0.6953	0.6284	0.63	0.006
Mof_H 	H 	0.6637	0.6586	0.5912	0.028
Mof_C 	C 	0.6943	0.6316	0.748	-0.028
Mof_H 	H 	0.6629	0.6627	0.7852	0.033
Mof_C 	C 	0.781	0.5436	0.739	-0.064
Mof_H 	H 	0.8138	0.5129	0.7755	0.054
Mof_C 	C 	0.7787	0.5402	0.62	0.03
Mof_H 	H 	0.8045	0.5076	0.5798	0.041
Mof_O 	O 	0.8213	0.7115	0.4023	-0.271
Mof_C 	C 	0.4784	0.5524	0.7702	-0.16
Mof_H 	H 	0.4624	0.5891	0.8082	0.088
Mof_O 	O 	0.8824	0.6197	0.3898	-0.276
Mof_C 	C 	0.0598	0.8508	0.6005	0.32
Mof_C 	C 	0.727	0.6411	0.9924	-0.139
Mof_H 	H 	0.7124	0.6782	0.9544	0.074
Mof_N 	N 	0.2318	0.6474	0.3826	-0.12
Mof_C 	C 	0.0496	0.785	0.5503	-0.089
Mof_O 	O 	0.2228	0.618	0.5639	-0.223
Mof_C 	C 	0.9729	0.7646	0.5054	0.021
Mof_H 	H 	0.9256	0.791	0.5079	0.045
Mof_C 	C 	0.1203	0.7464	0.5461	-0.009
Mof_H 	H 	0.1711	0.7595	0.5788	0.063
Mof_C 	C 	0.8829	0.6778	0.4124	0.318
Mof_C 	C 	0.1154	0.688	0.4931	-0.042
Mof_C 	C 	0.3071	0.6099	0.3633	-0.051
Mof_H 	H 	0.3516	0.6217	0.4178	0.076
Mof_C 	C 	0.1957	0.6478	0.4835	0.213
Mof_C 	C 	0.04	0.668	0.4465	-0.014
Mof_H 	H 	0.0381	0.6297	0.4076	0.059
Mof_C 	C 	0.3345	0.6287	0.2397	-0.138
Mof_H 	H 	0.3959	0.6313	0.233	0.031
Mof_H 	H 	0.3131	0.5987	0.1841	0.057
Mof_H 	H 	0.3798	0.6599	0.2421	0.058
Mof_H 	H 	0.3549	0.5918	0.1988	0.033
Mof_C 	C 	0.205	0.6823	0.2828	-0.069
Mof_H 	H 	0.1787	0.7224	0.3024	0.016
Mof_H 	H 	0.1668	0.6578	0.2353	0.046
Mof_H 	H 	0.2156	0.7272	0.2924	0.04
Mof_H 	H 	0.1448	0.676	0.2688	0.021
Mof_C 	C 	0.2947	0.6914	0.226	-0.041
Mof_H 	H 	0.2892	0.7025	0.1461	0.023
Mof_H 	H 	0.3272	0.7239	0.2645	0.039
Mof_C 	C 	0.259	0.655	0.183	-0.036
Mof_H 	H 	0.2277	0.6227	0.1419	0.033
Mof_H 	H 	0.2745	0.6885	0.1296	0.016
Mof_Cd	Cd	0.24843	0.91183	0.63003	0.464
Mof_C 	C 	0.2466	0.9126	0.0679	0.062
Mof_N 	N 	0.2539	0.9106	0.8289	-0.144
Mof_N 	N 	0.2371	0.9133	0.4317	-0.134
Mof_C 	C 	0.2409	0.9127	0.1894	0.018
Mof_O 	O 	0.7164	0.9802	0.6436	-0.264
Mof_O 	O 	0.6256	0.6405	0.3401	-0.288
Mof_O 	O 	0.8528	0.9966	0.6162	-0.292
Mof_O 	O 	0.5028	0.6102	0.4163	-0.294
Mof_C 	C 	0.7904	0.9607	0.6308	0.303
Mof_C 	C 	0.2762	0.9607	0.8861	0.074
Mof_H 	H 	0.2952	0.9958	0.8455	0.024
Mof_C 	C 	0.0287	0.95	0.8622	0.067
Mof_H 	H 	0.0511	0.9159	0.8221	0.025
Mof_C 	C 	0.0262	0.9472	0.98	-0.119
Mof_H 	H 	0.0418	0.9105	0.0186	0.072
Mof_C 	C 	0.2291	0.8604	0.8879	0.076
Mof_H 	H 	0.2123	0.8244	0.8483	0.021
Mof_C 	C 	0.2733	0.965	0.0064	-0.122
Mof_H 	H 	0.289	0.0022	0.0433	0.068
Mof_C 	C 	0.4663	0.7959	0.5438	-0.075
Mof_C 	C 	0.9803	0.9491	0.3465	0.106
Mof_H 	H 	0.967	0.9124	0.3863	0.016
Mof_C 	C 	0.2486	0.8578	0.2542	-0.061
Mof_H 	H 	0.2551	0.819	0.2175	0.043
Mof_C 	C 	0.2307	0.9683	0.2525	-0.006
Mof_H 	H 	0.2272	0.0072	0.2155	0.031
Mof_C 	C 	0.2257	0.9655	0.3701	0.019
Mof_H 	H 	0.2135	0.0028	0.4089	0.038
Mof_C 	C 	0.2468	0.8596	0.3723	0.031
Mof_H 	H 	0.2527	0.8218	0.4122	0.026
Mof_C 	C 	0.1953	0.8716	0.37	0.001
Mof_H 	H 	0.1637	0.8414	0.4088	0.03
Mof_C 	C 	0.1943	0.8684	0.252	-0.036
Mof_H 	H 	0.1629	0.8373	0.2148	0.035
Mof_C 	C 	0.281	0.9564	0.261	-0.083
Mof_H 	H 	0.3138	0.9871	0.2245	0.062
Mof_C 	C 	0.2787	0.9598	0.38	0.012
Mof_H 	H 	0.3045	0.9924	0.4202	0.049
Mof_O 	O 	0.3213	0.7885	0.5977	-0.271
Mof_C 	C 	0.9784	0.9476	0.2298	-0.143
Mof_H 	H 	0.9624	0.9109	0.1918	0.085
Mof_O 	O 	0.3824	0.8803	0.6102	-0.278
Mof_C 	C 	0.5598	0.6492	0.3995	0.318
Mof_C 	C 	0.227	0.8589	0.0076	-0.133
Mof_H 	H 	0.2124	0.8218	0.0456	0.071
Mof_N 	N 	0.7318	0.8526	0.6174	-0.12
Mof_C 	C 	0.5496	0.715	0.4497	-0.079
Mof_O 	O 	0.7228	0.882	0.4361	-0.222
Mof_C 	C 	0.4729	0.7354	0.4946	0.012
Mof_H 	H 	0.4256	0.709	0.4921	0.047
Mof_C 	C 	0.6203	0.7536	0.4539	-0.011
Mof_H 	H 	0.6711	0.7405	0.4212	0.064
Mof_C 	C 	0.3829	0.8222	0.5876	0.319
Mof_C 	C 	0.6154	0.812	0.5069	-0.042
Mof_C 	C 	0.8071	0.8901	0.6367	-0.049
Mof_H 	H 	0.8516	0.8783	0.5822	0.076
Mof_C 	C 	0.6957	0.8522	0.5165	0.214
Mof_C 	C 	0.54	0.832	0.5535	-0.005
Mof_H 	H 	0.5381	0.8703	0.5924	0.059
Mof_C 	C 	0.8345	0.8713	0.7603	-0.142
Mof_H 	H 	0.8959	0.8687	0.767	0.033
Mof_H 	H 	0.8131	0.9013	0.8159	0.058
Mof_H 	H 	0.8798	0.8401	0.7579	0.059
Mof_H 	H 	0.8549	0.9082	0.8012	0.035
Mof_C 	C 	0.705	0.8177	0.7172	-0.07
Mof_H 	H 	0.6787	0.7776	0.6976	0.017
Mof_H 	H 	0.6668	0.8422	0.7647	0.046
Mof_H 	H 	0.7156	0.7728	0.7076	0.04
Mof_H 	H 	0.6448	0.824	0.7312	0.022
Mof_C 	C 	0.7947	0.8086	0.774	-0.04
Mof_H 	H 	0.7892	0.7975	0.8539	0.023
Mof_H 	H 	0.8272	0.7761	0.7355	0.039
Mof_C 	C 	0.759	0.845	0.817	-0.034
Mof_H 	H 	0.7277	0.8773	0.8581	0.034
Mof_H 	H 	0.7745	0.8115	0.8704	0.016
Mof_Cd	Cd	0.75157	0.08817	0.63003	0.46
Mof_C 	C 	0.7534	0.0874	0.0679	0.073
Mof_N 	N 	0.7461	0.0894	0.8289	-0.147
Mof_N 	N 	0.7629	0.0867	0.4317	-0.133
Mof_C 	C 	0.7591	0.0873	0.1894	0.014
Mof_O 	O 	0.2836	0.0198	0.6436	-0.27
Mof_O 	O 	0.3744	0.3595	0.3401	-0.288
Mof_O 	O 	0.1472	0.0034	0.6162	-0.3
Mof_O 	O 	0.4972	0.3898	0.4163	-0.294
Mof_C 	C 	0.2096	0.0393	0.6308	0.306
Mof_C 	C 	0.7238	0.0393	0.8861	0.086
Mof_H 	H 	0.7048	0.0042	0.8455	0.016
Mof_C 	C 	0.9713	0.05	0.8622	0.071
Mof_H 	H 	0.9489	0.0841	0.8221	0.026
Mof_C 	C 	0.9738	0.0528	0.98	-0.117
Mof_H 	H 	0.9582	0.0895	0.0186	0.074
Mof_C 	C 	0.7709	0.1396	0.8879	0.08
Mof_H 	H 	0.7877	0.1756	0.8483	0.021
Mof_C 	C 	0.7267	0.035	0.0064	-0.147
Mof_H 	H 	0.711	0.9978	0.0433	0.084
Mof_C 	C 	0.5337	0.2041	0.5438	-0.076
Mof_C 	C 	0.0197	0.0509	0.3465	0.094
Mof_H 	H 	0.033	0.0876	0.3863	0.015
Mof_C 	C 	0.7514	0.1422	0.2542	-0.076
Mof_H 	H 	0.7449	0.181	0.2175	0.047
Mof_C 	C 	0.7693	0.0317	0.2525	-0.039
Mof_H 	H 	0.7728	0.9928	0.2155	0.049
Mof_C 	C 	0.7743	0.0345	0.3701	-0.023
Mof_H 	H 	0.7865	0.9972	0.4089	0.059
Mof_C 	C 	0.7532	0.1404	0.3723	0.02
Mof_H 	H 	0.7473	0.1782	0.4122	0.03
Mof_C 	C 	0.8047	0.1284	0.37	0.012
Mof_H 	H 	0.8363	0.1586	0.4088	0.027
Mof_C 	C 	0.8057	0.1316	0.252	-0.019
Mof_H 	H 	0.8371	0.1627	0.2148	0.031
Mof_C 	C 	0.719	0.0436	0.261	-0.051
Mof_H 	H 	0.6862	0.0129	0.2245	0.047
Mof_C 	C 	0.7213	0.0402	0.38	0.043
Mof_H 	H 	0.6955	0.0076	0.4202	0.034
Mof_O 	O 	0.6787	0.2115	0.5977	-0.272
Mof_C 	C 	0.0216	0.0524	0.2298	-0.154
Mof_H 	H 	0.0376	0.0891	0.1918	0.084
Mof_O 	O 	0.6176	0.1197	0.6102	-0.279
Mof_C 	C 	0.4402	0.3508	0.3995	0.318
Mof_C 	C 	0.773	0.1411	0.0076	-0.14
Mof_H 	H 	0.7876	0.1782	0.0456	0.075
Mof_N 	N 	0.2682	0.1474	0.6174	-0.12
Mof_C 	C 	0.4504	0.285	0.4497	-0.08
Mof_O 	O 	0.2772	0.118	0.4361	-0.224
Mof_C 	C 	0.5271	0.2646	0.4946	0.012
Mof_H 	H 	0.5744	0.291	0.4921	0.047
Mof_C 	C 	0.3797	0.2464	0.4539	-0.01
Mof_H 	H 	0.3289	0.2595	0.4212	0.064
Mof_C 	C 	0.6171	0.1778	0.5876	0.319
Mof_C 	C 	0.3846	0.188	0.5069	-0.043
Mof_C 	C 	0.1929	0.1099	0.6367	-0.053
Mof_H 	H 	0.1484	0.1217	0.5822	0.075
Mof_C 	C 	0.3043	0.1478	0.5165	0.214
Mof_C 	C 	0.46	0.168	0.5535	-0.005
Mof_H 	H 	0.4619	0.1297	0.5924	0.057
Mof_C 	C 	0.1655	0.1287	0.7603	-0.135
Mof_H 	H 	0.1041	0.1313	0.767	0.029
Mof_H 	H 	0.1869	0.0987	0.8159	0.055
Mof_H 	H 	0.1202	0.1599	0.7579	0.056
Mof_H 	H 	0.1451	0.0918	0.8012	0.032
Mof_C 	C 	0.295	0.1823	0.7172	-0.069
Mof_H 	H 	0.3213	0.2224	0.6976	0.016
Mof_H 	H 	0.3332	0.1578	0.7647	0.046
Mof_H 	H 	0.2844	0.2272	0.7076	0.039
Mof_H 	H 	0.3552	0.176	0.7312	0.021
Mof_C 	C 	0.2053	0.1914	0.774	-0.042
Mof_H 	H 	0.2108	0.2025	0.8539	0.023
Mof_H 	H 	0.1728	0.2239	0.7355	0.038
Mof_C 	C 	0.241	0.155	0.817	-0.036
Mof_H 	H 	0.2723	0.1227	0.8581	0.033
Mof_H 	H 	0.2255	0.1885	0.8704	0.016
Mof_Cd	Cd	0.5	0.5	0.39547	0.463
Mof_C 	C 	0.5	0.5	0.8294	0.084
Mof_C 	C 	0.5	0.5	0.962	0.042
Mof_N 	N 	0.5	0.5	0.1957	-0.144
Mof_N 	N 	0.5	0.5	0.5958	-0.154
Mof_Cd	Cd	-1.53924e-33	0	0.60453	0.454
Mof_C 	C 	-1.13816e-33	-8.07838e-34	0.1706	0.068
Mof_C 	C 	-2.97555e-34	-2.0196e-34	0.038	0.035
Mof_N 	N 	2.25127e-33	0	0.8043	-0.151
Mof_N 	N 	-2.09998e-33	-1.61568e-33	0.4042	-0.16
_end
