data_functionalizedCrystal
_audit_creation_method	'EQeq! by Chris Wilmer'
_symmetry_space_group_name_H-M	'P1'
_symmetry_Int_Tables_number	1
_symmetry_cell_setting	triclinic
loop_
_symmetry_equiv_pos_as_xyz
  x,y,z
_cell_length_a	10.2829
_cell_length_b	10.2829
_cell_length_c	14.3687
_cell_angle_alpha	90
_cell_angle_beta	90
_cell_angle_gamma	90
loop_
_atom_site_label
_atom_site_type_symbol
_atom_site_fract_x
_atom_site_fract_y
_atom_site_fract_z
_atom_site_charge
Mof_O 	O 	0.9241	0.1042	0.9065	-0.63
Mof_O 	O 	0.7504	0.0836	0.98978	-0.603
Mof_O 	O 	0.3297	0.9289	0.6925	-0.605
Mof_C 	C 	0.7353	0.0388	0.8291	-0.344
Mof_C 	C 	0.6001	0.0367	0.8296	0.267
Mof_H 	H 	0.5551	0.0599	0.8833	-0.032
Mof_C 	C 	0.8071	0.0797	0.9147	0.63
Mof_H 	H 	0.3743	0.3071	0.8344	-0.262
Mof_C 	C 	0.332	0.421	0.9466	0.757
Mof_H 	H 	0.4162	0.4596	0.9389	-0.188
Mof_H 	H 	0.3245	0.3855	0.0081	-0.169
Mof_H 	H 	0.2661	0.4865	0.9379	-0.166
Mof_H 	H 	0.3622	0.3254	0.9228	-0.32
Mof_C 	C 	0.324	0.413	0.8	0.631
Mof_H 	H 	0.3913	0.4742	0.8133	-0.12
Mof_H 	H 	0.242	0.4577	0.7946	-0.137
Mof_H 	H 	0.3424	0.3698	0.7419	-0.128
Mof_O 	O 	0.0759	0.8958	0.4065	-0.687
Mof_O 	O 	0.2496	0.9164	0.48978	-0.623
Mof_O 	O 	0.6703	0.0711	0.1925	-0.647
Mof_C 	C 	0.2647	0.9612	0.3291	-0.348
Mof_C 	C 	0.3999	0.9633	0.3296	0.33
Mof_H 	H 	0.4449	0.9401	0.3833	-0.049
Mof_C 	C 	0.1929	0.9203	0.4147	0.655
Mof_H 	H 	0.6257	0.6929	0.3344	-0.259
Mof_C 	C 	0.668	0.579	0.4466	0.815
Mof_H 	H 	0.5838	0.5404	0.4389	-0.213
Mof_H 	H 	0.6755	0.6145	0.5081	-0.169
Mof_H 	H 	0.7339	0.5135	0.4379	-0.186
Mof_H 	H 	0.6378	0.6746	0.4228	-0.351
Mof_C 	C 	0.676	0.587	0.3	0.62
Mof_H 	H 	0.6087	0.5258	0.3133	-0.119
Mof_H 	H 	0.758	0.5423	0.2946	-0.134
Mof_H 	H 	0.6576	0.6302	0.2419	-0.128
Mof_O 	O 	0.8958	0.9241	0.1565	-0.63
Mof_O 	O 	0.9164	0.7504	0.23978	-0.62
Mof_O 	O 	0.0711	0.3297	0.9425	-0.617
Mof_C 	C 	0.9612	0.7353	0.0791	-0.316
Mof_C 	C 	0.9633	0.6001	0.0796	0.304
Mof_H 	H 	0.9401	0.5551	0.1333	-0.039
Mof_C 	C 	0.9203	0.8071	0.1647	0.636
Mof_H 	H 	0.6929	0.3743	0.0844	-0.297
Mof_C 	C 	0.579	0.332	0.1966	0.786
Mof_H 	H 	0.5404	0.4162	0.1889	-0.204
Mof_H 	H 	0.6145	0.3245	0.2581	-0.167
Mof_H 	H 	0.5135	0.2661	0.1879	-0.182
Mof_H 	H 	0.6746	0.3622	0.1728	-0.348
Mof_C 	C 	0.587	0.324	0.05	0.664
Mof_H 	H 	0.5258	0.3913	0.0633	-0.131
Mof_H 	H 	0.5423	0.242	0.0446	-0.158
Mof_H 	H 	0.6302	0.3424	0.9919	-0.125
Mof_O 	O 	0.1042	0.0759	0.6565	-0.699
Mof_O 	O 	0.0836	0.2496	0.73978	-0.632
Mof_O 	O 	0.9289	0.6703	0.4425	-0.619
Mof_C 	C 	0.0388	0.2647	0.5791	-0.382
Mof_C 	C 	0.0367	0.3999	0.5796	0.288
Mof_H 	H 	0.0599	0.4449	0.6333	-0.045
Mof_C 	C 	0.0797	0.1929	0.6647	0.649
Mof_H 	H 	0.3071	0.6257	0.5844	-0.258
Mof_C 	C 	0.421	0.668	0.6966	0.82
Mof_H 	H 	0.4596	0.5838	0.6889	-0.212
Mof_H 	H 	0.3855	0.6755	0.7581	-0.168
Mof_H 	H 	0.4865	0.7339	0.6879	-0.184
Mof_H 	H 	0.3254	0.6378	0.6728	-0.353
Mof_C 	C 	0.413	0.676	0.55	0.619
Mof_H 	H 	0.4742	0.6087	0.5633	-0.117
Mof_H 	H 	0.4577	0.758	0.5446	-0.133
Mof_H 	H 	0.3698	0.6576	0.4919	-0.126
Mof_O 	O 	0.0759	0.1042	0.0935	-0.697
Mof_O 	O 	0.2496	0.0836	0.01022	-0.647
Mof_O 	O 	0.6703	0.9289	0.3075	-0.619
Mof_C 	C 	0.2647	0.0388	0.1709	-0.384
Mof_C 	C 	0.3999	0.0367	0.1704	0.289
Mof_H 	H 	0.4449	0.0599	0.1167	-0.049
Mof_C 	C 	0.1929	0.0797	0.0853	0.65
Mof_H 	H 	0.6257	0.3071	0.1656	-0.256
Mof_C 	C 	0.668	0.421	0.0534	0.884
Mof_H 	H 	0.5838	0.4596	0.0611	-0.238
Mof_H 	H 	0.6755	0.3855	0.9919	-0.17
Mof_H 	H 	0.7339	0.4865	0.0621	-0.207
Mof_H 	H 	0.6378	0.3254	0.0772	-0.391
Mof_C 	C 	0.676	0.413	0.2	0.605
Mof_H 	H 	0.6087	0.4742	0.1867	-0.114
Mof_H 	H 	0.758	0.4577	0.2054	-0.128
Mof_H 	H 	0.6576	0.3698	0.2581	-0.124
Mof_O 	O 	0.9241	0.8958	0.5935	-0.629
Mof_O 	O 	0.7504	0.9164	0.51022	-0.62
Mof_O 	O 	0.3297	0.0711	0.8075	-0.633
Mof_C 	C 	0.7353	0.9612	0.6709	-0.314
Mof_C 	C 	0.6001	0.9633	0.6704	0.311
Mof_H 	H 	0.5551	0.9401	0.6167	-0.041
Mof_C 	C 	0.8071	0.9203	0.5853	0.64
Mof_H 	H 	0.3743	0.6929	0.6656	-0.264
Mof_C 	C 	0.332	0.579	0.5534	0.806
Mof_H 	H 	0.4162	0.5404	0.5611	-0.211
Mof_H 	H 	0.3245	0.6145	0.4919	-0.172
Mof_H 	H 	0.2661	0.5135	0.5621	-0.187
Mof_H 	H 	0.3622	0.6746	0.5772	-0.351
Mof_C 	C 	0.324	0.587	0.7	0.622
Mof_H 	H 	0.3913	0.5258	0.6867	-0.118
Mof_H 	H 	0.242	0.5423	0.7054	-0.135
Mof_H 	H 	0.3424	0.6302	0.7581	-0.128
Mof_O 	O 	0.1042	0.9241	0.8435	-0.638
Mof_O 	O 	0.0836	0.7504	0.76022	-0.626
Mof_O 	O 	0.9289	0.3297	0.0575	-0.607
Mof_C 	C 	0.0388	0.7353	0.9209	-0.33
Mof_C 	C 	0.0367	0.6001	0.9204	0.288
Mof_H 	H 	0.0599	0.5551	0.8667	-0.042
Mof_C 	C 	0.0797	0.8071	0.8353	0.63
Mof_H 	H 	0.3071	0.3743	0.9156	-0.233
Mof_C 	C 	0.421	0.332	0.8034	0.828
Mof_H 	H 	0.4596	0.4162	0.8111	-0.215
Mof_H 	H 	0.3855	0.3245	0.7419	-0.176
Mof_H 	H 	0.4865	0.2661	0.8121	-0.19
Mof_H 	H 	0.3254	0.3622	0.8272	-0.356
Mof_C 	C 	0.413	0.324	0.95	0.582
Mof_H 	H 	0.4742	0.3913	0.9367	-0.104
Mof_H 	H 	0.4577	0.242	0.9554	-0.112
Mof_H 	H 	0.3698	0.3424	0.0081	-0.13
Mof_O 	O 	0.8958	0.0759	0.3435	-0.686
Mof_O 	O 	0.9164	0.2496	0.26022	-0.62
Mof_O 	O 	0.0711	0.6703	0.5575	-0.649
Mof_C 	C 	0.9612	0.2647	0.4209	-0.347
Mof_C 	C 	0.9633	0.3999	0.4204	0.33
Mof_H 	H 	0.9401	0.4449	0.3667	-0.049
Mof_C 	C 	0.9203	0.1929	0.3353	0.653
Mof_H 	H 	0.6929	0.6257	0.4156	-0.261
Mof_C 	C 	0.579	0.668	0.3034	0.812
Mof_H 	H 	0.5404	0.5838	0.3111	-0.213
Mof_H 	H 	0.6145	0.6755	0.2419	-0.17
Mof_H 	H 	0.5135	0.7339	0.3121	-0.186
Mof_H 	H 	0.6746	0.6378	0.3272	-0.35
Mof_C 	C 	0.587	0.676	0.45	0.621
Mof_H 	H 	0.5258	0.6087	0.4367	-0.119
Mof_H 	H 	0.5423	0.758	0.4554	-0.134
Mof_H 	H 	0.6302	0.6576	0.5081	-0.128
Mof_Tb	Tb	0.14258	0.14258	0.875	2.493
Mof_O 	O 	0.3133	0.3133	0.875	0.021
Mof_O 	O 	0.3159	0.3159	0.875	-0.022
Mof_Tb	Tb	0.85742	0.85742	0.375	2.637
Mof_O 	O 	0.6867	0.6867	0.375	0.027
Mof_O 	O 	0.6841	0.6841	0.375	-0.02
Mof_Tb	Tb	0.85742	0.14258	0.125	2.511
Mof_O 	O 	0.6867	0.3133	0.125	0.045
Mof_O 	O 	0.6841	0.3159	0.125	-0.002
Mof_Tb	Tb	0.14258	0.85742	0.625	2.553
Mof_O 	O 	0.3133	0.6867	0.625	0.031
Mof_O 	O 	0.3159	0.6841	0.625	-0.015
Mof_C 	C 	0.8007	8.30753e-33	0.75	0.251
Mof_H 	H 	0.8912	8.30753e-33	0.75	-0.084
Mof_C 	C 	0.5317	8.30753e-33	0.75	-0.363
Mof_C 	C 	0.3844	8.30753e-33	0.75	0.62
Mof_C 	C 	0.1993	4.15376e-33	0.25	0.278
Mof_H 	H 	0.1088	4.15376e-33	0.25	-0.121
Mof_C 	C 	0.4683	4.15376e-33	0.25	-0.385
Mof_C 	C 	0.6156	4.15376e-33	0.25	0.632
Mof_C 	C 	-0	0.8007	-0	0.227
Mof_H 	H 	8.30753e-33	0.8912	-0	-0.084
Mof_C 	C 	4.15376e-33	0.5317	-0	-0.378
Mof_C 	C 	-0	0.3844	-0	0.6
Mof_C 	C 	1.09271e-32	0.1993	0.5	0.277
Mof_H 	H 	2.61959e-33	0.1088	0.5	-0.123
Mof_C 	C 	1.09271e-32	0.4683	0.5	-0.384
Mof_C 	C 	2.61959e-33	0.6156	0.5	0.633
_end
