data_functionalizedCrystal
_audit_creation_method	'EQeq! by Chris Wilmer'
_symmetry_space_group_name_H-M	'P1'
_symmetry_Int_Tables_number	1
_symmetry_cell_setting	triclinic
loop_
_symmetry_equiv_pos_as_xyz
  x,y,z
_cell_length_a	16.986
_cell_length_b	16.986
_cell_length_c	16.986
_cell_angle_alpha	90
_cell_angle_beta	90
_cell_angle_gamma	90
loop_
_atom_site_label
_atom_site_type_symbol
_atom_site_fract_x
_atom_site_fract_y
_atom_site_fract_z
_atom_site_charge
Mof_N 	N 	0.59022	0.96843	0.3176	-0.24
Mof_C 	C 	0.6307	0.89863	0.31391	-0.021
Mof_H 	H 	0.621	0.858	0.2785	-0.011
Mof_H 	H 	0.5501	0.102	0.3746	0.039
Mof_H 	H 	0.5795	0.0816	0.4597	0.041
Mof_H 	H 	0.636	0.1239	0.4002	0.048
Mof_H 	H 	0.5772	0.0811	0.459	0.043
Mof_H 	H 	0.5516	0.1031	0.3731	0.039
Mof_H 	H 	0.6367	0.1234	0.4025	0.049
Mof_N 	N 	0.09022	0.46843	0.8176	-0.354
Mof_C 	C 	0.1307	0.39863	0.81391	-0.036
Mof_H 	H 	0.121	0.358	0.7785	-0.02
Mof_H 	H 	0.0501	0.602	0.8746	0.062
Mof_H 	H 	0.0795	0.5816	0.9597	0.078
Mof_H 	H 	0.136	0.6239	0.9002	0.077
Mof_H 	H 	0.0772	0.5811	0.959	0.079
Mof_H 	H 	0.0516	0.6031	0.8731	0.062
Mof_H 	H 	0.1367	0.6234	0.9025	0.078
Mof_N 	N 	0.40978	0.03157	0.3176	-0.43
Mof_C 	C 	0.3693	0.10137	0.31391	-0.036
Mof_H 	H 	0.379	0.142	0.2785	-0.011
Mof_H 	H 	0.4499	0.898	0.3746	0.094
Mof_H 	H 	0.4205	0.9184	0.4597	0.101
Mof_H 	H 	0.364	0.8761	0.4002	0.1
Mof_H 	H 	0.4228	0.9189	0.459	0.103
Mof_H 	H 	0.4484	0.8969	0.3731	0.094
Mof_H 	H 	0.3633	0.8766	0.4025	0.101
Mof_N 	N 	0.90978	0.53157	0.8176	-0.331
Mof_C 	C 	0.8693	0.60137	0.81391	-0.015
Mof_H 	H 	0.879	0.642	0.7785	0.004
Mof_H 	H 	0.9499	0.398	0.8746	0.096
Mof_H 	H 	0.9205	0.4184	0.9597	0.108
Mof_H 	H 	0.864	0.3761	0.9002	0.099
Mof_H 	H 	0.9228	0.4189	0.959	0.11
Mof_H 	H 	0.9484	0.3969	0.8731	0.096
Mof_H 	H 	0.8633	0.3766	0.9025	0.1
Mof_N 	N 	0.40978	0.96843	0.6824	-0.239
Mof_C 	C 	0.3693	0.89863	0.68609	-0.02
Mof_H 	H 	0.379	0.858	0.7215	-0.012
Mof_H 	H 	0.4499	0.102	0.6254	0.039
Mof_H 	H 	0.4205	0.0816	0.5403	0.043
Mof_H 	H 	0.364	0.1239	0.5998	0.05
Mof_H 	H 	0.4228	0.0811	0.541	0.044
Mof_H 	H 	0.4484	0.1031	0.6269	0.04
Mof_H 	H 	0.3633	0.1234	0.5975	0.05
Mof_N 	N 	0.90978	0.46843	0.1824	-0.318
Mof_C 	C 	0.8693	0.39863	0.18609	-0.021
Mof_H 	H 	0.879	0.358	0.2215	-0.007
Mof_H 	H 	0.9499	0.602	0.1254	0.074
Mof_H 	H 	0.9205	0.5816	0.0403	0.068
Mof_H 	H 	0.864	0.6239	0.0998	0.076
Mof_H 	H 	0.9228	0.5811	0.041	0.07
Mof_H 	H 	0.9484	0.6031	0.1269	0.075
Mof_H 	H 	0.8633	0.6234	0.0975	0.076
Mof_N 	N 	0.59022	0.03157	0.6824	-0.429
Mof_C 	C 	0.6307	0.10137	0.68609	-0.032
Mof_H 	H 	0.621	0.142	0.7215	-0.01
Mof_H 	H 	0.5501	0.898	0.6254	0.093
Mof_H 	H 	0.5795	0.9184	0.5403	0.101
Mof_H 	H 	0.636	0.8761	0.5998	0.1
Mof_H 	H 	0.5772	0.9189	0.541	0.103
Mof_H 	H 	0.5516	0.8969	0.6269	0.094
Mof_H 	H 	0.6367	0.8766	0.5975	0.101
Mof_N 	N 	0.09022	0.53157	0.1824	-0.336
Mof_C 	C 	0.1307	0.60137	0.18609	-0.038
Mof_H 	H 	0.121	0.642	0.2215	-0.022
Mof_H 	H 	0.0501	0.398	0.1254	0.034
Mof_H 	H 	0.0795	0.4184	0.0403	0.033
Mof_H 	H 	0.136	0.3761	0.0998	0.047
Mof_H 	H 	0.0772	0.4189	0.041	0.034
Mof_H 	H 	0.0516	0.3969	0.1269	0.034
Mof_H 	H 	0.1367	0.3766	0.0975	0.048
Mof_N 	N 	0.3176	0.59022	0.96843	-0.239
Mof_C 	C 	0.31391	0.6307	0.89863	-0.02
Mof_H 	H 	0.2785	0.621	0.858	-0.01
Mof_H 	H 	0.3746	0.5501	0.102	0.04
Mof_H 	H 	0.4597	0.5795	0.0816	0.042
Mof_H 	H 	0.4002	0.636	0.1239	0.049
Mof_H 	H 	0.459	0.5772	0.0811	0.044
Mof_H 	H 	0.3731	0.5516	0.1031	0.04
Mof_H 	H 	0.4025	0.6367	0.1234	0.05
Mof_N 	N 	0.8176	0.09022	0.46843	-0.353
Mof_C 	C 	0.81391	0.1307	0.39863	-0.035
Mof_H 	H 	0.7785	0.121	0.358	-0.019
Mof_H 	H 	0.8746	0.0501	0.602	0.063
Mof_H 	H 	0.9597	0.0795	0.5816	0.079
Mof_H 	H 	0.9002	0.136	0.6239	0.078
Mof_H 	H 	0.959	0.0772	0.5811	0.08
Mof_H 	H 	0.8731	0.0516	0.6031	0.063
Mof_H 	H 	0.9025	0.1367	0.6234	0.079
Mof_N 	N 	0.3176	0.40978	0.03157	-0.43
Mof_C 	C 	0.31391	0.3693	0.10137	-0.036
Mof_H 	H 	0.2785	0.379	0.142	-0.011
Mof_H 	H 	0.3746	0.4499	0.898	0.094
Mof_H 	H 	0.4597	0.4205	0.9184	0.101
Mof_H 	H 	0.4002	0.364	0.8761	0.1
Mof_H 	H 	0.459	0.4228	0.9189	0.103
Mof_H 	H 	0.3731	0.4484	0.8969	0.094
Mof_H 	H 	0.4025	0.3633	0.8766	0.101
Mof_N 	N 	0.8176	0.90978	0.53157	-0.331
Mof_C 	C 	0.81391	0.8693	0.60137	-0.015
Mof_H 	H 	0.7785	0.879	0.642	0.004
Mof_H 	H 	0.8746	0.9499	0.398	0.096
Mof_H 	H 	0.9597	0.9205	0.4184	0.108
Mof_H 	H 	0.9002	0.864	0.3761	0.099
Mof_H 	H 	0.959	0.9228	0.4189	0.11
Mof_H 	H 	0.8731	0.9484	0.3969	0.096
Mof_H 	H 	0.9025	0.8633	0.3766	0.1
Mof_N 	N 	0.6824	0.40978	0.96843	-0.239
Mof_C 	C 	0.68609	0.3693	0.89863	-0.02
Mof_H 	H 	0.7215	0.379	0.858	-0.012
Mof_H 	H 	0.6254	0.4499	0.102	0.039
Mof_H 	H 	0.5403	0.4205	0.0816	0.043
Mof_H 	H 	0.5998	0.364	0.1239	0.05
Mof_H 	H 	0.541	0.4228	0.0811	0.044
Mof_H 	H 	0.6269	0.4484	0.1031	0.04
Mof_H 	H 	0.5975	0.3633	0.1234	0.05
Mof_N 	N 	0.1824	0.90978	0.46843	-0.318
Mof_C 	C 	0.18609	0.8693	0.39863	-0.021
Mof_H 	H 	0.2215	0.879	0.358	-0.007
Mof_H 	H 	0.1254	0.9499	0.602	0.074
Mof_H 	H 	0.0403	0.9205	0.5816	0.068
Mof_H 	H 	0.0998	0.864	0.6239	0.076
Mof_H 	H 	0.041	0.9228	0.5811	0.07
Mof_H 	H 	0.1269	0.9484	0.6031	0.075
Mof_H 	H 	0.0975	0.8633	0.6234	0.076
Mof_N 	N 	0.6824	0.59022	0.03157	-0.429
Mof_C 	C 	0.68609	0.6307	0.10137	-0.032
Mof_H 	H 	0.7215	0.621	0.142	-0.01
Mof_H 	H 	0.6254	0.5501	0.898	0.093
Mof_H 	H 	0.5403	0.5795	0.9184	0.101
Mof_H 	H 	0.5998	0.636	0.8761	0.1
Mof_H 	H 	0.541	0.5772	0.9189	0.103
Mof_H 	H 	0.6269	0.5516	0.8969	0.094
Mof_H 	H 	0.5975	0.6367	0.8766	0.101
Mof_N 	N 	0.1824	0.09022	0.53157	-0.336
Mof_C 	C 	0.18609	0.1307	0.60137	-0.038
Mof_H 	H 	0.2215	0.121	0.642	-0.022
Mof_H 	H 	0.1254	0.0501	0.398	0.034
Mof_H 	H 	0.0403	0.0795	0.4184	0.033
Mof_H 	H 	0.0998	0.136	0.3761	0.047
Mof_H 	H 	0.041	0.0772	0.4189	0.034
Mof_H 	H 	0.1269	0.0516	0.3969	0.034
Mof_H 	H 	0.0975	0.1367	0.3766	0.048
Mof_N 	N 	0.96843	0.3176	0.59022	-0.239
Mof_C 	C 	0.89863	0.31391	0.6307	-0.02
Mof_H 	H 	0.858	0.2785	0.621	-0.01
Mof_H 	H 	0.102	0.3746	0.5501	0.04
Mof_H 	H 	0.0816	0.4597	0.5795	0.042
Mof_H 	H 	0.1239	0.4002	0.636	0.049
Mof_H 	H 	0.0811	0.459	0.5772	0.044
Mof_H 	H 	0.1031	0.3731	0.5516	0.04
Mof_H 	H 	0.1234	0.4025	0.6367	0.05
Mof_N 	N 	0.46843	0.8176	0.09022	-0.353
Mof_C 	C 	0.39863	0.81391	0.1307	-0.035
Mof_H 	H 	0.358	0.7785	0.121	-0.019
Mof_H 	H 	0.602	0.8746	0.0501	0.063
Mof_H 	H 	0.5816	0.9597	0.0795	0.079
Mof_H 	H 	0.6239	0.9002	0.136	0.078
Mof_H 	H 	0.5811	0.959	0.0772	0.08
Mof_H 	H 	0.6031	0.8731	0.0516	0.063
Mof_H 	H 	0.6234	0.9025	0.1367	0.079
Mof_N 	N 	0.03157	0.3176	0.40978	-0.43
Mof_C 	C 	0.10137	0.31391	0.3693	-0.036
Mof_H 	H 	0.142	0.2785	0.379	-0.011
Mof_H 	H 	0.898	0.3746	0.4499	0.094
Mof_H 	H 	0.9184	0.4597	0.4205	0.101
Mof_H 	H 	0.8761	0.4002	0.364	0.1
Mof_H 	H 	0.9189	0.459	0.4228	0.103
Mof_H 	H 	0.8969	0.3731	0.4484	0.094
Mof_H 	H 	0.8766	0.4025	0.3633	0.101
Mof_N 	N 	0.53157	0.8176	0.90978	-0.331
Mof_C 	C 	0.60137	0.81391	0.8693	-0.015
Mof_H 	H 	0.642	0.7785	0.879	0.004
Mof_H 	H 	0.398	0.8746	0.9499	0.096
Mof_H 	H 	0.4184	0.9597	0.9205	0.108
Mof_H 	H 	0.3761	0.9002	0.864	0.099
Mof_H 	H 	0.4189	0.959	0.9228	0.11
Mof_H 	H 	0.3969	0.8731	0.9484	0.096
Mof_H 	H 	0.3766	0.9025	0.8633	0.1
Mof_N 	N 	0.96843	0.6824	0.40978	-0.239
Mof_C 	C 	0.89863	0.68609	0.3693	-0.02
Mof_H 	H 	0.858	0.7215	0.379	-0.012
Mof_H 	H 	0.102	0.6254	0.4499	0.039
Mof_H 	H 	0.0816	0.5403	0.4205	0.043
Mof_H 	H 	0.1239	0.5998	0.364	0.05
Mof_H 	H 	0.0811	0.541	0.4228	0.044
Mof_H 	H 	0.1031	0.6269	0.4484	0.04
Mof_H 	H 	0.1234	0.5975	0.3633	0.05
Mof_N 	N 	0.46843	0.1824	0.90978	-0.318
Mof_C 	C 	0.39863	0.18609	0.8693	-0.021
Mof_H 	H 	0.358	0.2215	0.879	-0.007
Mof_H 	H 	0.602	0.1254	0.9499	0.074
Mof_H 	H 	0.5816	0.0403	0.9205	0.068
Mof_H 	H 	0.6239	0.0998	0.864	0.076
Mof_H 	H 	0.5811	0.041	0.9228	0.07
Mof_H 	H 	0.6031	0.1269	0.9484	0.075
Mof_H 	H 	0.6234	0.0975	0.8633	0.076
Mof_N 	N 	0.03157	0.6824	0.59022	-0.429
Mof_C 	C 	0.10137	0.68609	0.6307	-0.032
Mof_H 	H 	0.142	0.7215	0.621	-0.01
Mof_H 	H 	0.898	0.6254	0.5501	0.093
Mof_H 	H 	0.9184	0.5403	0.5795	0.101
Mof_H 	H 	0.8761	0.5998	0.636	0.1
Mof_H 	H 	0.9189	0.541	0.5772	0.103
Mof_H 	H 	0.8969	0.6269	0.5516	0.094
Mof_H 	H 	0.8766	0.5975	0.6367	0.101
Mof_N 	N 	0.53157	0.1824	0.09022	-0.336
Mof_C 	C 	0.60137	0.18609	0.1307	-0.038
Mof_H 	H 	0.642	0.2215	0.121	-0.022
Mof_H 	H 	0.398	0.1254	0.0501	0.034
Mof_H 	H 	0.4184	0.0403	0.0795	0.033
Mof_H 	H 	0.3761	0.0998	0.136	0.047
Mof_H 	H 	0.4189	0.041	0.0772	0.034
Mof_H 	H 	0.3969	0.1269	0.0516	0.034
Mof_H 	H 	0.3766	0.0975	0.1367	0.048
Mof_N 	N 	0.96843	0.59022	0.3176	-0.239
Mof_C 	C 	0.89863	0.6307	0.31391	-0.02
Mof_H 	H 	0.858	0.621	0.2785	-0.01
Mof_H 	H 	0.102	0.5501	0.3746	0.04
Mof_H 	H 	0.0816	0.5795	0.4597	0.042
Mof_H 	H 	0.1239	0.636	0.4002	0.049
Mof_H 	H 	0.0811	0.5772	0.459	0.044
Mof_H 	H 	0.1031	0.5516	0.3731	0.04
Mof_H 	H 	0.1234	0.6367	0.4025	0.05
Mof_N 	N 	0.46843	0.09022	0.8176	-0.353
Mof_C 	C 	0.39863	0.1307	0.81391	-0.035
Mof_H 	H 	0.358	0.121	0.7785	-0.019
Mof_H 	H 	0.602	0.0501	0.8746	0.063
Mof_H 	H 	0.5816	0.0795	0.9597	0.079
Mof_H 	H 	0.6239	0.136	0.9002	0.078
Mof_H 	H 	0.5811	0.0772	0.959	0.08
Mof_H 	H 	0.6031	0.0516	0.8731	0.063
Mof_H 	H 	0.6234	0.1367	0.9025	0.079
Mof_N 	N 	0.03157	0.40978	0.3176	-0.43
Mof_C 	C 	0.10137	0.3693	0.31391	-0.036
Mof_H 	H 	0.142	0.379	0.2785	-0.011
Mof_H 	H 	0.898	0.4499	0.3746	0.094
Mof_H 	H 	0.9184	0.4205	0.4597	0.101
Mof_H 	H 	0.8761	0.364	0.4002	0.1
Mof_H 	H 	0.9189	0.4228	0.459	0.103
Mof_H 	H 	0.8969	0.4484	0.3731	0.094
Mof_H 	H 	0.8766	0.3633	0.4025	0.101
Mof_N 	N 	0.53157	0.90978	0.8176	-0.331
Mof_C 	C 	0.60137	0.8693	0.81391	-0.015
Mof_H 	H 	0.642	0.879	0.7785	0.004
Mof_H 	H 	0.398	0.9499	0.8746	0.096
Mof_H 	H 	0.4184	0.9205	0.9597	0.108
Mof_H 	H 	0.3761	0.864	0.9002	0.099
Mof_H 	H 	0.4189	0.9228	0.959	0.11
Mof_H 	H 	0.3969	0.9484	0.8731	0.096
Mof_H 	H 	0.3766	0.8633	0.9025	0.1
Mof_N 	N 	0.96843	0.40978	0.6824	-0.239
Mof_C 	C 	0.89863	0.3693	0.68609	-0.02
Mof_H 	H 	0.858	0.379	0.7215	-0.012
Mof_H 	H 	0.102	0.4499	0.6254	0.039
Mof_H 	H 	0.0816	0.4205	0.5403	0.043
Mof_H 	H 	0.1239	0.364	0.5998	0.05
Mof_H 	H 	0.0811	0.4228	0.541	0.044
Mof_H 	H 	0.1031	0.4484	0.6269	0.04
Mof_H 	H 	0.1234	0.3633	0.5975	0.05
Mof_N 	N 	0.46843	0.90978	0.1824	-0.318
Mof_C 	C 	0.39863	0.8693	0.18609	-0.021
Mof_H 	H 	0.358	0.879	0.2215	-0.007
Mof_H 	H 	0.602	0.9499	0.1254	0.074
Mof_H 	H 	0.5816	0.9205	0.0403	0.068
Mof_H 	H 	0.6239	0.864	0.0998	0.076
Mof_H 	H 	0.5811	0.9228	0.041	0.07
Mof_H 	H 	0.6031	0.9484	0.1269	0.075
Mof_H 	H 	0.6234	0.8633	0.0975	0.076
Mof_N 	N 	0.03157	0.59022	0.6824	-0.429
Mof_C 	C 	0.10137	0.6307	0.68609	-0.032
Mof_H 	H 	0.142	0.621	0.7215	-0.01
Mof_H 	H 	0.898	0.5501	0.6254	0.093
Mof_H 	H 	0.9184	0.5795	0.5403	0.101
Mof_H 	H 	0.8761	0.636	0.5998	0.1
Mof_H 	H 	0.9189	0.5772	0.541	0.103
Mof_H 	H 	0.8969	0.5516	0.6269	0.094
Mof_H 	H 	0.8766	0.6367	0.5975	0.101
Mof_N 	N 	0.53157	0.09022	0.1824	-0.336
Mof_C 	C 	0.60137	0.1307	0.18609	-0.038
Mof_H 	H 	0.642	0.121	0.2215	-0.022
Mof_H 	H 	0.398	0.0501	0.1254	0.034
Mof_H 	H 	0.4184	0.0795	0.0403	0.033
Mof_H 	H 	0.3761	0.136	0.0998	0.047
Mof_H 	H 	0.4189	0.0772	0.041	0.034
Mof_H 	H 	0.3969	0.0516	0.1269	0.034
Mof_H 	H 	0.3766	0.1367	0.0975	0.048
Mof_N 	N 	0.59022	0.3176	0.96843	-0.239
Mof_C 	C 	0.6307	0.31391	0.89863	-0.02
Mof_H 	H 	0.621	0.2785	0.858	-0.01
Mof_H 	H 	0.5501	0.3746	0.102	0.04
Mof_H 	H 	0.5795	0.4597	0.0816	0.042
Mof_H 	H 	0.636	0.4002	0.1239	0.049
Mof_H 	H 	0.5772	0.459	0.0811	0.044
Mof_H 	H 	0.5516	0.3731	0.1031	0.04
Mof_H 	H 	0.6367	0.4025	0.1234	0.05
Mof_N 	N 	0.09022	0.8176	0.46843	-0.353
Mof_C 	C 	0.1307	0.81391	0.39863	-0.035
Mof_H 	H 	0.121	0.7785	0.358	-0.019
Mof_H 	H 	0.0501	0.8746	0.602	0.063
Mof_H 	H 	0.0795	0.9597	0.5816	0.079
Mof_H 	H 	0.136	0.9002	0.6239	0.078
Mof_H 	H 	0.0772	0.959	0.5811	0.08
Mof_H 	H 	0.0516	0.8731	0.6031	0.063
Mof_H 	H 	0.1367	0.9025	0.6234	0.079
Mof_N 	N 	0.40978	0.3176	0.03157	-0.43
Mof_C 	C 	0.3693	0.31391	0.10137	-0.036
Mof_H 	H 	0.379	0.2785	0.142	-0.011
Mof_H 	H 	0.4499	0.3746	0.898	0.094
Mof_H 	H 	0.4205	0.4597	0.9184	0.101
Mof_H 	H 	0.364	0.4002	0.8761	0.1
Mof_H 	H 	0.4228	0.459	0.9189	0.103
Mof_H 	H 	0.4484	0.3731	0.8969	0.094
Mof_H 	H 	0.3633	0.4025	0.8766	0.101
Mof_N 	N 	0.90978	0.8176	0.53157	-0.331
Mof_C 	C 	0.8693	0.81391	0.60137	-0.015
Mof_H 	H 	0.879	0.7785	0.642	0.004
Mof_H 	H 	0.9499	0.8746	0.398	0.096
Mof_H 	H 	0.9205	0.9597	0.4184	0.108
Mof_H 	H 	0.864	0.9002	0.3761	0.099
Mof_H 	H 	0.9228	0.959	0.4189	0.11
Mof_H 	H 	0.9484	0.8731	0.3969	0.096
Mof_H 	H 	0.8633	0.9025	0.3766	0.1
Mof_N 	N 	0.40978	0.6824	0.96843	-0.239
Mof_C 	C 	0.3693	0.68609	0.89863	-0.02
Mof_H 	H 	0.379	0.7215	0.858	-0.012
Mof_H 	H 	0.4499	0.6254	0.102	0.039
Mof_H 	H 	0.4205	0.5403	0.0816	0.043
Mof_H 	H 	0.364	0.5998	0.1239	0.05
Mof_H 	H 	0.4228	0.541	0.0811	0.044
Mof_H 	H 	0.4484	0.6269	0.1031	0.04
Mof_H 	H 	0.3633	0.5975	0.1234	0.05
Mof_N 	N 	0.90978	0.1824	0.46843	-0.318
Mof_C 	C 	0.8693	0.18609	0.39863	-0.021
Mof_H 	H 	0.879	0.2215	0.358	-0.007
Mof_H 	H 	0.9499	0.1254	0.602	0.074
Mof_H 	H 	0.9205	0.0403	0.5816	0.068
Mof_H 	H 	0.864	0.0998	0.6239	0.076
Mof_H 	H 	0.9228	0.041	0.5811	0.07
Mof_H 	H 	0.9484	0.1269	0.6031	0.075
Mof_H 	H 	0.8633	0.0975	0.6234	0.076
Mof_N 	N 	0.59022	0.6824	0.03157	-0.429
Mof_C 	C 	0.6307	0.68609	0.10137	-0.032
Mof_H 	H 	0.621	0.7215	0.142	-0.01
Mof_H 	H 	0.5501	0.6254	0.898	0.093
Mof_H 	H 	0.5795	0.5403	0.9184	0.101
Mof_H 	H 	0.636	0.5998	0.8761	0.1
Mof_H 	H 	0.5772	0.541	0.9189	0.103
Mof_H 	H 	0.5516	0.6269	0.8969	0.094
Mof_H 	H 	0.6367	0.5975	0.8766	0.101
Mof_N 	N 	0.09022	0.1824	0.53157	-0.336
Mof_C 	C 	0.1307	0.18609	0.60137	-0.038
Mof_H 	H 	0.121	0.2215	0.642	-0.022
Mof_H 	H 	0.0501	0.1254	0.398	0.034
Mof_H 	H 	0.0795	0.0403	0.4184	0.033
Mof_H 	H 	0.136	0.0998	0.3761	0.047
Mof_H 	H 	0.0772	0.041	0.4189	0.034
Mof_H 	H 	0.0516	0.1269	0.3969	0.034
Mof_H 	H 	0.1367	0.0975	0.3766	0.048
Mof_N 	N 	0.3176	0.96843	0.59022	-0.239
Mof_C 	C 	0.31391	0.89863	0.6307	-0.02
Mof_H 	H 	0.2785	0.858	0.621	-0.01
Mof_H 	H 	0.3746	0.102	0.5501	0.04
Mof_H 	H 	0.4597	0.0816	0.5795	0.042
Mof_H 	H 	0.4002	0.1239	0.636	0.049
Mof_H 	H 	0.459	0.0811	0.5772	0.044
Mof_H 	H 	0.3731	0.1031	0.5516	0.04
Mof_H 	H 	0.4025	0.1234	0.6367	0.05
Mof_N 	N 	0.8176	0.46843	0.09022	-0.353
Mof_C 	C 	0.81391	0.39863	0.1307	-0.035
Mof_H 	H 	0.7785	0.358	0.121	-0.019
Mof_H 	H 	0.8746	0.602	0.0501	0.063
Mof_H 	H 	0.9597	0.5816	0.0795	0.079
Mof_H 	H 	0.9002	0.6239	0.136	0.078
Mof_H 	H 	0.959	0.5811	0.0772	0.08
Mof_H 	H 	0.8731	0.6031	0.0516	0.063
Mof_H 	H 	0.9025	0.6234	0.1367	0.079
Mof_N 	N 	0.3176	0.03157	0.40978	-0.43
Mof_C 	C 	0.31391	0.10137	0.3693	-0.036
Mof_H 	H 	0.2785	0.142	0.379	-0.011
Mof_H 	H 	0.3746	0.898	0.4499	0.094
Mof_H 	H 	0.4597	0.9184	0.4205	0.101
Mof_H 	H 	0.4002	0.8761	0.364	0.1
Mof_H 	H 	0.459	0.9189	0.4228	0.103
Mof_H 	H 	0.3731	0.8969	0.4484	0.094
Mof_H 	H 	0.4025	0.8766	0.3633	0.101
Mof_N 	N 	0.8176	0.53157	0.90978	-0.331
Mof_C 	C 	0.81391	0.60137	0.8693	-0.015
Mof_H 	H 	0.7785	0.642	0.879	0.004
Mof_H 	H 	0.8746	0.398	0.9499	0.096
Mof_H 	H 	0.9597	0.4184	0.9205	0.108
Mof_H 	H 	0.9002	0.3761	0.864	0.099
Mof_H 	H 	0.959	0.4189	0.9228	0.11
Mof_H 	H 	0.8731	0.3969	0.9484	0.096
Mof_H 	H 	0.9025	0.3766	0.8633	0.1
Mof_N 	N 	0.6824	0.96843	0.40978	-0.239
Mof_C 	C 	0.68609	0.89863	0.3693	-0.02
Mof_H 	H 	0.7215	0.858	0.379	-0.012
Mof_H 	H 	0.6254	0.102	0.4499	0.039
Mof_H 	H 	0.5403	0.0816	0.4205	0.043
Mof_H 	H 	0.5998	0.1239	0.364	0.05
Mof_H 	H 	0.541	0.0811	0.4228	0.044
Mof_H 	H 	0.6269	0.1031	0.4484	0.04
Mof_H 	H 	0.5975	0.1234	0.3633	0.05
Mof_N 	N 	0.1824	0.46843	0.90978	-0.318
Mof_C 	C 	0.18609	0.39863	0.8693	-0.021
Mof_H 	H 	0.2215	0.358	0.879	-0.007
Mof_H 	H 	0.1254	0.602	0.9499	0.074
Mof_H 	H 	0.0403	0.5816	0.9205	0.068
Mof_H 	H 	0.0998	0.6239	0.864	0.076
Mof_H 	H 	0.041	0.5811	0.9228	0.07
Mof_H 	H 	0.1269	0.6031	0.9484	0.075
Mof_H 	H 	0.0975	0.6234	0.8633	0.076
Mof_N 	N 	0.6824	0.03157	0.59022	-0.429
Mof_C 	C 	0.68609	0.10137	0.6307	-0.032
Mof_H 	H 	0.7215	0.142	0.621	-0.01
Mof_H 	H 	0.6254	0.898	0.5501	0.093
Mof_H 	H 	0.5403	0.9184	0.5795	0.101
Mof_H 	H 	0.5998	0.8761	0.636	0.1
Mof_H 	H 	0.541	0.9189	0.5772	0.103
Mof_H 	H 	0.6269	0.8969	0.5516	0.094
Mof_H 	H 	0.5975	0.8766	0.6367	0.101
Mof_N 	N 	0.1824	0.53157	0.09022	-0.336
Mof_C 	C 	0.18609	0.60137	0.1307	-0.038
Mof_H 	H 	0.2215	0.642	0.121	-0.022
Mof_H 	H 	0.1254	0.398	0.0501	0.034
Mof_H 	H 	0.0403	0.4184	0.0795	0.033
Mof_H 	H 	0.0998	0.3761	0.136	0.047
Mof_H 	H 	0.041	0.4189	0.0772	0.034
Mof_H 	H 	0.1269	0.3969	0.0516	0.034
Mof_H 	H 	0.0975	0.3766	0.1367	0.048
Mof_Zn	Zn	0.5	0	0.25	1.136
Mof_Zn	Zn	0.5	1.03017e-32	0.75	1.137
Mof_Zn	Zn	6.08818e-33	0.5	0.25	1.136
Mof_Zn	Zn	0.25	0.5	-0	1.136
Mof_Zn	Zn	0.75	0.5	-0	1.137
Mof_Zn	Zn	0.25	0	0.5	1.136
Mof_Zn	Zn	1.8747e-33	0.25	0.5	1.136
Mof_Zn	Zn	1.8747e-33	0.75	0.5	1.137
Mof_Zn	Zn	0.5	0.25	-0	1.136
Mof_Zn	Zn	2.81205e-33	0.5	0.75	1.137
Mof_Zn	Zn	0.5	0.75	-0	1.137
Mof_Zn	Zn	0.75	0	0.5	1.137
Mof_C 	C 	0.623	0.0079	0.377	0.055
Mof_C 	C 	0.5946	0.0858	0.4054	-0.668
Mof_C 	C 	0.123	0.5079	0.877	0.311
Mof_C 	C 	0.0946	0.5858	0.9054	-1.004
Mof_C 	C 	0.377	0.9921	0.377	0.557
Mof_C 	C 	0.4054	0.9142	0.4054	-1.308
Mof_C 	C 	0.877	0.4921	0.877	0.398
Mof_C 	C 	0.9054	0.4142	0.9054	-1.247
Mof_C 	C 	0.377	0.0079	0.623	0.055
Mof_C 	C 	0.4054	0.0858	0.5946	-0.668
Mof_C 	C 	0.877	0.5079	0.123	0.311
Mof_C 	C 	0.9054	0.5858	0.0946	-1.004
Mof_C 	C 	0.623	0.9921	0.623	0.56
Mof_C 	C 	0.5946	0.9142	0.5946	-1.307
Mof_C 	C 	0.123	0.4921	0.123	0.207
Mof_C 	C 	0.0946	0.4142	0.0946	-0.702
Mof_C 	C 	0.377	0.623	0.0079	0.055
Mof_C 	C 	0.4054	0.5946	0.0858	-0.668
Mof_C 	C 	0.877	0.123	0.5079	0.311
Mof_C 	C 	0.9054	0.0946	0.5858	-1.004
Mof_C 	C 	0.377	0.377	0.9921	0.557
Mof_C 	C 	0.4054	0.4054	0.9142	-1.308
Mof_C 	C 	0.877	0.877	0.4921	0.398
Mof_C 	C 	0.9054	0.9054	0.4142	-1.247
Mof_C 	C 	0.623	0.377	0.0079	0.055
Mof_C 	C 	0.5946	0.4054	0.0858	-0.668
Mof_C 	C 	0.123	0.877	0.5079	0.311
Mof_C 	C 	0.0946	0.9054	0.5858	-1.004
Mof_C 	C 	0.623	0.623	0.9921	0.56
Mof_C 	C 	0.5946	0.5946	0.9142	-1.307
Mof_C 	C 	0.123	0.123	0.4921	0.207
Mof_C 	C 	0.0946	0.0946	0.4142	-0.702
Mof_C 	C 	0.0079	0.377	0.623	0.055
Mof_C 	C 	0.0858	0.4054	0.5946	-0.668
Mof_C 	C 	0.5079	0.877	0.123	0.311
Mof_C 	C 	0.5858	0.9054	0.0946	-1.004
Mof_C 	C 	0.9921	0.377	0.377	0.557
Mof_C 	C 	0.9142	0.4054	0.4054	-1.308
Mof_C 	C 	0.4921	0.877	0.877	0.398
Mof_C 	C 	0.4142	0.9054	0.9054	-1.247
Mof_C 	C 	0.0079	0.623	0.377	0.055
Mof_C 	C 	0.0858	0.5946	0.4054	-0.668
Mof_C 	C 	0.5079	0.123	0.877	0.311
Mof_C 	C 	0.5858	0.0946	0.9054	-1.004
Mof_C 	C 	0.9921	0.623	0.623	0.56
Mof_C 	C 	0.9142	0.5946	0.5946	-1.307
Mof_C 	C 	0.4921	0.123	0.123	0.207
Mof_C 	C 	0.4142	0.0946	0.0946	-0.702
_end
