# CIF file generated by openbabel 2.4.1, see http://openbabel.sf.net
data_I
_chemical_name_common 'image0'
_cell_length_a 15.0609
_cell_length_b 15.0609
_cell_length_c 19.2433
_cell_angle_alpha 90
_cell_angle_beta 90
_cell_angle_gamma 90
_space_group_name_H-M_alt 'P 1'
_space_group_name_Hall 'P 1'
loop_
    _symmetry_equiv_pos_as_xyz
    x,y,z
loop_
    _atom_site_label
    _atom_site_type_symbol
    _atom_site_fract_x
    _atom_site_fract_y
    _atom_site_fract_z
    _atom_site_occupancy
    O1      O    0.05510   0.87830   0.05751   1.000
    C1      C    0.17080   0.73610   0.06130   1.000
    H1      H    0.14780   0.75640   0.10320   1.000
    C2      C    0.07440   0.94870   0.20990   1.000
    H2      H    0.12890   0.98290   0.20710   1.000
    H3      H    0.08180   0.89460   0.18320   1.000
    C3      C    0.08890   0.01740   0.21130   1.000
    H4      H    0.10180   0.08050   0.21000   1.000
    H5      H    0.13340   0.98640   0.18410   1.000
    O2      O    0.55510   0.37830   0.55751   1.000
    C4      C    0.67080   0.23610   0.56130   1.000
    H6      H    0.64780   0.25640   0.60320   1.000
    C5      C    0.57440   0.44870   0.70990   1.000
    H7      H    0.62890   0.48290   0.70710   1.000
    H8      H    0.58180   0.39460   0.68320   1.000
    C6      C    0.58890   0.51740   0.71130   1.000
    H9      H    0.60180   0.58050   0.71000   1.000
    H10     H    0.63340   0.48640   0.68410   1.000
    O3      O    0.94490   0.12170   0.05751   1.000
    C7      C    0.82920   0.26390   0.06130   1.000
    H11     H    0.85220   0.24360   0.10320   1.000
    C8      C    0.92560   0.05130   0.20990   1.000
    H12     H    0.87110   0.01710   0.20710   1.000
    H13     H    0.91820   0.10540   0.18320   1.000
    C9      C    0.91110   0.98260   0.21130   1.000
    H14     H    0.89820   0.91950   0.21000   1.000
    H15     H    0.86660   0.01360   0.18410   1.000
    O4      O    0.44490   0.62170   0.55751   1.000
    C10     C    0.32920   0.76390   0.56130   1.000
    H16     H    0.35220   0.74360   0.60320   1.000
    C11     C    0.42560   0.55130   0.70990   1.000
    H17     H    0.37110   0.51710   0.70710   1.000
    H18     H    0.41820   0.60540   0.68320   1.000
    C12     C    0.41110   0.48260   0.71130   1.000
    H19     H    0.39820   0.41950   0.71000   1.000
    H20     H    0.36660   0.51360   0.68410   1.000
    O5      O    0.12170   0.05510   0.05751   1.000
    C13     C    0.26390   0.17080   0.06130   1.000
    H21     H    0.24360   0.14780   0.10320   1.000
    C14     C    0.05130   0.07440   0.20990   1.000
    H22     H    0.01710   0.12890   0.20710   1.000
    H23     H    0.10540   0.08180   0.18320   1.000
    C15     C    0.98260   0.08890   0.21130   1.000
    H24     H    0.91950   0.10180   0.21000   1.000
    H25     H    0.01360   0.13340   0.18410   1.000
    O6      O    0.62170   0.55510   0.55751   1.000
    C16     C    0.76390   0.67080   0.56130   1.000
    H26     H    0.74360   0.64780   0.60320   1.000
    C17     C    0.55130   0.57440   0.70990   1.000
    H27     H    0.51710   0.62890   0.70710   1.000
    H28     H    0.60540   0.58180   0.68320   1.000
    C18     C    0.48260   0.58890   0.71130   1.000
    H29     H    0.41950   0.60180   0.71000   1.000
    H30     H    0.51360   0.63340   0.68410   1.000
    O7      O    0.87830   0.94490   0.05751   1.000
    C19     C    0.73610   0.82920   0.06130   1.000
    H31     H    0.75640   0.85220   0.10320   1.000
    C20     C    0.94870   0.92560   0.20990   1.000
    H32     H    0.98290   0.87110   0.20710   1.000
    H33     H    0.89460   0.91820   0.18320   1.000
    C21     C    0.01740   0.91110   0.21130   1.000
    H34     H    0.08050   0.89820   0.21000   1.000
    H35     H    0.98640   0.86660   0.18410   1.000
    O8      O    0.37830   0.44490   0.55751   1.000
    C22     C    0.23610   0.32920   0.56130   1.000
    H36     H    0.25640   0.35220   0.60320   1.000
    C23     C    0.44870   0.42560   0.70990   1.000
    H37     H    0.48290   0.37110   0.70710   1.000
    H38     H    0.39460   0.41820   0.68320   1.000
    C24     C    0.51740   0.41110   0.71130   1.000
    H39     H    0.58050   0.39820   0.71000   1.000
    H40     H    0.48640   0.36660   0.68410   1.000
    O9      O    0.94490   0.87830   0.44249   1.000
    C25     C    0.82920   0.73610   0.43870   1.000
    H41     H    0.85220   0.75640   0.39680   1.000
    C26     C    0.92560   0.94870   0.29010   1.000
    H42     H    0.87110   0.98290   0.29290   1.000
    H43     H    0.91820   0.89460   0.31680   1.000
    C27     C    0.91110   0.01740   0.28870   1.000
    H44     H    0.89820   0.08050   0.29000   1.000
    H45     H    0.86660   0.98640   0.31590   1.000
    O10     O    0.44490   0.37830   0.94249   1.000
    C28     C    0.32920   0.23610   0.93870   1.000
    H46     H    0.35220   0.25640   0.89680   1.000
    C29     C    0.42560   0.44870   0.79010   1.000
    H47     H    0.37110   0.48290   0.79290   1.000
    H48     H    0.41820   0.39460   0.81680   1.000
    C30     C    0.41110   0.51740   0.78870   1.000
    H49     H    0.39820   0.58050   0.79000   1.000
    H50     H    0.36660   0.48640   0.81590   1.000
    O11     O    0.05510   0.12170   0.44249   1.000
    C31     C    0.17080   0.26390   0.43870   1.000
    H51     H    0.14780   0.24360   0.39680   1.000
    C32     C    0.07440   0.05130   0.29010   1.000
    H52     H    0.12890   0.01710   0.29290   1.000
    H53     H    0.08180   0.10540   0.31680   1.000
    C33     C    0.08890   0.98260   0.28870   1.000
    H54     H    0.10180   0.91950   0.29000   1.000
    H55     H    0.13340   0.01360   0.31590   1.000
    O12     O    0.55510   0.62170   0.94249   1.000
    C34     C    0.67080   0.76390   0.93870   1.000
    H56     H    0.64780   0.74360   0.89680   1.000
    C35     C    0.57440   0.55130   0.79010   1.000
    H57     H    0.62890   0.51710   0.79290   1.000
    H58     H    0.58180   0.60540   0.81680   1.000
    C36     C    0.58890   0.48260   0.78870   1.000
    H59     H    0.60180   0.41950   0.79000   1.000
    H60     H    0.63340   0.51360   0.81590   1.000
    O13     O    0.87830   0.05510   0.44249   1.000
    C37     C    0.73610   0.17080   0.43870   1.000
    H61     H    0.75640   0.14780   0.39680   1.000
    C38     C    0.94870   0.07440   0.29010   1.000
    H62     H    0.98290   0.12890   0.29290   1.000
    H63     H    0.89460   0.08180   0.31680   1.000
    C39     C    0.01740   0.08890   0.28870   1.000
    H64     H    0.08050   0.10180   0.29000   1.000
    H65     H    0.98640   0.13340   0.31590   1.000
    O14     O    0.37830   0.55510   0.94249   1.000
    C40     C    0.23610   0.67080   0.93870   1.000
    H66     H    0.25640   0.64780   0.89680   1.000
    C41     C    0.44870   0.57440   0.79010   1.000
    H67     H    0.48290   0.62890   0.79290   1.000
    H68     H    0.39460   0.58180   0.81680   1.000
    C42     C    0.51740   0.58890   0.78870   1.000
    H69     H    0.58050   0.60180   0.79000   1.000
    H70     H    0.48640   0.63340   0.81590   1.000
    O15     O    0.12170   0.94490   0.44249   1.000
    C43     C    0.26390   0.82920   0.43870   1.000
    H71     H    0.24360   0.85220   0.39680   1.000
    C44     C    0.05130   0.92560   0.29010   1.000
    H72     H    0.01710   0.87110   0.29290   1.000
    H73     H    0.10540   0.91820   0.31680   1.000
    C45     C    0.98260   0.91110   0.28870   1.000
    H74     H    0.91950   0.89820   0.29000   1.000
    H75     H    0.01360   0.86660   0.31590   1.000
    O16     O    0.62170   0.44490   0.94249   1.000
    C46     C    0.76390   0.32920   0.93870   1.000
    H76     H    0.74360   0.35220   0.89680   1.000
    C47     C    0.55130   0.42560   0.79010   1.000
    H77     H    0.51710   0.37110   0.79290   1.000
    H78     H    0.60540   0.41820   0.81680   1.000
    C48     C    0.48260   0.41110   0.78870   1.000
    H79     H    0.41950   0.39820   0.79000   1.000
    H80     H    0.51360   0.36660   0.81590   1.000
    O17     O    0.94490   0.12170   0.94249   1.000
    C49     C    0.82920   0.26390   0.93870   1.000
    H81     H    0.85220   0.24360   0.89680   1.000
    C50     C    0.92560   0.05130   0.79010   1.000
    H82     H    0.87110   0.01710   0.79290   1.000
    H83     H    0.91820   0.10540   0.81680   1.000
    C51     C    0.91110   0.98260   0.78870   1.000
    H84     H    0.89820   0.91950   0.79000   1.000
    H85     H    0.86660   0.01360   0.81590   1.000
    O18     O    0.44490   0.62170   0.44249   1.000
    C52     C    0.32920   0.76390   0.43870   1.000
    H86     H    0.35220   0.74360   0.39680   1.000
    C53     C    0.42560   0.55130   0.29010   1.000
    H87     H    0.37110   0.51710   0.29290   1.000
    H88     H    0.41820   0.60540   0.31680   1.000
    C54     C    0.41110   0.48260   0.28870   1.000
    H89     H    0.39820   0.41950   0.29000   1.000
    H90     H    0.36660   0.51360   0.31590   1.000
    O19     O    0.05510   0.87830   0.94249   1.000
    C55     C    0.17080   0.73610   0.93870   1.000
    H91     H    0.14780   0.75640   0.89680   1.000
    C56     C    0.07440   0.94870   0.79010   1.000
    H92     H    0.12890   0.98290   0.79290   1.000
    H93     H    0.08180   0.89460   0.81680   1.000
    C57     C    0.08890   0.01740   0.78870   1.000
    H94     H    0.10180   0.08050   0.79000   1.000
    H95     H    0.13340   0.98640   0.81590   1.000
    O20     O    0.55510   0.37830   0.44249   1.000
    C58     C    0.67080   0.23610   0.43870   1.000
    H96     H    0.64780   0.25640   0.39680   1.000
    C59     C    0.57440   0.44870   0.29010   1.000
    H97     H    0.62890   0.48290   0.29290   1.000
    H98     H    0.58180   0.39460   0.31680   1.000
    C60     C    0.58890   0.51740   0.28870   1.000
    H99     H    0.60180   0.58050   0.29000   1.000
    H100    H    0.63340   0.48640   0.31590   1.000
    O21     O    0.87830   0.94490   0.94249   1.000
    C61     C    0.73610   0.82920   0.93870   1.000
    H101    H    0.75640   0.85220   0.89680   1.000
    C62     C    0.94870   0.92560   0.79010   1.000
    H102    H    0.98290   0.87110   0.79290   1.000
    H103    H    0.89460   0.91820   0.81680   1.000
    C63     C    0.01740   0.91110   0.78870   1.000
    H104    H    0.08050   0.89820   0.79000   1.000
    H105    H    0.98640   0.86660   0.81590   1.000
    O22     O    0.37830   0.44490   0.44249   1.000
    C64     C    0.23610   0.32920   0.43870   1.000
    H106    H    0.25640   0.35220   0.39680   1.000
    C65     C    0.44870   0.42560   0.29010   1.000
    H107    H    0.48290   0.37110   0.29290   1.000
    H108    H    0.39460   0.41820   0.31680   1.000
    C66     C    0.51740   0.41110   0.28870   1.000
    H109    H    0.58050   0.39820   0.29000   1.000
    H110    H    0.48640   0.36660   0.31590   1.000
    O23     O    0.12170   0.05510   0.94249   1.000
    C67     C    0.26390   0.17080   0.93870   1.000
    H111    H    0.24360   0.14780   0.89680   1.000
    C68     C    0.05130   0.07440   0.79010   1.000
    H112    H    0.01710   0.12890   0.79290   1.000
    H113    H    0.10540   0.08180   0.81680   1.000
    C69     C    0.98260   0.08890   0.78870   1.000
    H114    H    0.91950   0.10180   0.79000   1.000
    H115    H    0.01360   0.13340   0.81590   1.000
    O24     O    0.62170   0.55510   0.44249   1.000
    C70     C    0.76390   0.67080   0.43870   1.000
    H116    H    0.74360   0.64780   0.39680   1.000
    C71     C    0.55130   0.57440   0.29010   1.000
    H117    H    0.51710   0.62890   0.29290   1.000
    H118    H    0.60540   0.58180   0.31680   1.000
    C72     C    0.48260   0.58890   0.28870   1.000
    H119    H    0.41950   0.60180   0.29000   1.000
    H120    H    0.51360   0.63340   0.31590   1.000
    O25     O    0.05510   0.12170   0.55751   1.000
    C73     C    0.17080   0.26390   0.56130   1.000
    H121    H    0.14780   0.24360   0.60320   1.000
    C74     C    0.07440   0.05130   0.70990   1.000
    H122    H    0.12890   0.01710   0.70710   1.000
    H123    H    0.08180   0.10540   0.68320   1.000
    C75     C    0.08890   0.98260   0.71130   1.000
    H124    H    0.10180   0.91950   0.71000   1.000
    H125    H    0.13340   0.01360   0.68410   1.000
    O26     O    0.55510   0.62170   0.05751   1.000
    C76     C    0.67080   0.76390   0.06130   1.000
    H126    H    0.64780   0.74360   0.10320   1.000
    C77     C    0.57440   0.55130   0.20990   1.000
    H127    H    0.62890   0.51710   0.20710   1.000
    H128    H    0.58180   0.60540   0.18320   1.000
    C78     C    0.58890   0.48260   0.21130   1.000
    H129    H    0.60180   0.41950   0.21000   1.000
    H130    H    0.63340   0.51360   0.18410   1.000
    O27     O    0.94490   0.87830   0.55751   1.000
    C79     C    0.82920   0.73610   0.56130   1.000
    H131    H    0.85220   0.75640   0.60320   1.000
    C80     C    0.92560   0.94870   0.70990   1.000
    H132    H    0.87110   0.98290   0.70710   1.000
    H133    H    0.91820   0.89460   0.68320   1.000
    C81     C    0.91110   0.01740   0.71130   1.000
    H134    H    0.89820   0.08050   0.71000   1.000
    H135    H    0.86660   0.98640   0.68410   1.000
    O28     O    0.44490   0.37830   0.05751   1.000
    C82     C    0.32920   0.23610   0.06130   1.000
    H136    H    0.35220   0.25640   0.10320   1.000
    C83     C    0.42560   0.44870   0.20990   1.000
    H137    H    0.37110   0.48290   0.20710   1.000
    H138    H    0.41820   0.39460   0.18320   1.000
    C84     C    0.41110   0.51740   0.21130   1.000
    H139    H    0.39820   0.58050   0.21000   1.000
    H140    H    0.36660   0.48640   0.18410   1.000
    O29     O    0.12170   0.94490   0.55751   1.000
    C85     C    0.26390   0.82920   0.56130   1.000
    H141    H    0.24360   0.85220   0.60320   1.000
    C86     C    0.05130   0.92560   0.70990   1.000
    H142    H    0.01710   0.87110   0.70710   1.000
    H143    H    0.10540   0.91820   0.68320   1.000
    C87     C    0.98260   0.91110   0.71130   1.000
    H144    H    0.91950   0.89820   0.71000   1.000
    H145    H    0.01360   0.86660   0.68410   1.000
    O30     O    0.62170   0.44490   0.05751   1.000
    C88     C    0.76390   0.32920   0.06130   1.000
    H146    H    0.74360   0.35220   0.10320   1.000
    C89     C    0.55130   0.42560   0.20990   1.000
    H147    H    0.51710   0.37110   0.20710   1.000
    H148    H    0.60540   0.41820   0.18320   1.000
    C90     C    0.48260   0.41110   0.21130   1.000
    H149    H    0.41950   0.39820   0.21000   1.000
    H150    H    0.51360   0.36660   0.18410   1.000
    O31     O    0.87830   0.05510   0.55751   1.000
    C91     C    0.73610   0.17080   0.56130   1.000
    H151    H    0.75640   0.14780   0.60320   1.000
    C92     C    0.94870   0.07440   0.70990   1.000
    H152    H    0.98290   0.12890   0.70710   1.000
    H153    H    0.89460   0.08180   0.68320   1.000
    C93     C    0.01740   0.08890   0.71130   1.000
    H154    H    0.08050   0.10180   0.71000   1.000
    H155    H    0.98640   0.13340   0.68410   1.000
    O32     O    0.37830   0.55510   0.05751   1.000
    C94     C    0.23610   0.67080   0.06130   1.000
    H156    H    0.25640   0.64780   0.10320   1.000
    C95     C    0.44870   0.57440   0.20990   1.000
    H157    H    0.48290   0.62890   0.20710   1.000
    H158    H    0.39460   0.58180   0.18320   1.000
    C96     C    0.51740   0.58890   0.21130   1.000
    H159    H    0.58050   0.60180   0.21000   1.000
    H160    H    0.48640   0.63340   0.18410   1.000
    Zn1     Zn   0.00000   0.00000   0.07668   1.000
    N1      N    0.00000   0.00000   0.18350   1.000
    Zn2     Zn   0.50000   0.50000   0.57668   1.000
    N2      N    0.50000   0.50000   0.68350   1.000
    Zn3     Zn   0.00000   0.00000   0.42332   1.000
    N3      N    0.00000   0.00000   0.31650   1.000
    Zn4     Zn   0.50000   0.50000   0.92332   1.000
    N4      N    0.50000   0.50000   0.81650   1.000
    Zn5     Zn   0.00000   0.00000   0.92332   1.000
    N5      N    0.00000   0.00000   0.81650   1.000
    Zn6     Zn   0.50000   0.50000   0.42332   1.000
    N6      N    0.50000   0.50000   0.31650   1.000
    Zn7     Zn   0.00000   0.00000   0.57668   1.000
    N7      N    0.00000   0.00000   0.68350   1.000
    Zn8     Zn   0.50000   0.50000   0.07668   1.000
    N8      N    0.50000   0.50000   0.18350   1.000
    C97     C    0.14030   0.77070   0.00000   1.000
    C98     C    0.07830   0.84800   0.00000   1.000
    C99     C    0.64030   0.27070   0.50000   1.000
    C100    C    0.57830   0.34800   0.50000   1.000
    C101    C    0.85970   0.22930   0.00000   1.000
    C102    C    0.92170   0.15200   0.00000   1.000
    C103    C    0.35970   0.72930   0.50000   1.000
    C104    C    0.42170   0.65200   0.50000   1.000
    C105    C    0.22930   0.14030   0.00000   1.000
    C106    C    0.15200   0.07830   0.00000   1.000
    C107    C    0.72930   0.64030   0.50000   1.000
    C108    C    0.65200   0.57830   0.50000   1.000
    C109    C    0.77070   0.85970   0.00000   1.000
    C110    C    0.84800   0.92170   0.00000   1.000
    C111    C    0.27070   0.35970   0.50000   1.000
    C112    C    0.34800   0.42170   0.50000   1.000
    C113    C    0.85970   0.77070   0.50000   1.000
    C114    C    0.92170   0.84800   0.50000   1.000
    C115    C    0.35970   0.27070   0.00000   1.000
    C116    C    0.42170   0.34800   0.00000   1.000
    C117    C    0.14030   0.22930   0.50000   1.000
    C118    C    0.07830   0.15200   0.50000   1.000
    C119    C    0.64030   0.72930   0.00000   1.000
    C120    C    0.57830   0.65200   0.00000   1.000
    C121    C    0.77070   0.14030   0.50000   1.000
    C122    C    0.84800   0.07830   0.50000   1.000
    C123    C    0.27070   0.64030   0.00000   1.000
    C124    C    0.34800   0.57830   0.00000   1.000
    C125    C    0.22930   0.85970   0.50000   1.000
    C126    C    0.15200   0.92170   0.50000   1.000
    C127    C    0.72930   0.35970   0.00000   1.000
    C128    C    0.65200   0.42170   0.00000   1.000
