data_functionalizedCrystal
_audit_creation_method	'EQeq! by Chris Wilmer'
_symmetry_space_group_name_H-M	'P1'
_symmetry_Int_Tables_number	1
_symmetry_cell_setting	triclinic
loop_
_symmetry_equiv_pos_as_xyz
  x,y,z
_cell_length_a	10.9554
_cell_length_b	10.9554
_cell_length_c	9.5967
_cell_angle_alpha	90
_cell_angle_beta	90
_cell_angle_gamma	90
loop_
_atom_site_label
_atom_site_type_symbol
_atom_site_fract_x
_atom_site_fract_y
_atom_site_fract_z
_atom_site_charge
Mof_O 	O 	0.18277	0.0163	0.3846	0.265
Mof_C 	C 	0.0477	0.1137	0.08	-0.725
Mof_H 	H 	0.1321	0.1258	0.1143	0.226
Mof_H 	H 	0.9972	0.1823	0.1143	-0.249
Mof_O 	O 	0.81723	0.9837	0.3846	-0.555
Mof_C 	C 	0.9523	0.8863	0.08	0.719
Mof_H 	H 	0.8679	0.8742	0.1143	-0.196
Mof_H 	H 	0.0028	0.8177	0.1143	0.261
Mof_O 	O 	0.9837	0.18277	0.3846	-0.642
Mof_C 	C 	0.8863	0.0477	0.08	-1.619
Mof_H 	H 	0.8742	0.1321	0.1143	0.178
Mof_H 	H 	0.8177	0.9972	0.1143	0.067
Mof_O 	O 	0.0163	0.81723	0.3846	0.258
Mof_C 	C 	0.1137	0.9523	0.08	1.647
Mof_H 	H 	0.1258	0.8679	0.1143	-0.156
Mof_H 	H 	0.1823	0.0028	0.1143	-0.024
Mof_O 	O 	0.81723	0.0163	0.6154	0.258
Mof_C 	C 	0.9523	0.1137	0.92	1.647
Mof_H 	H 	0.8679	0.1258	0.8857	-0.156
Mof_H 	H 	0.0028	0.1823	0.8857	-0.024
Mof_O 	O 	0.18277	0.9837	0.6154	-0.643
Mof_C 	C 	0.0477	0.8863	0.92	-1.62
Mof_H 	H 	0.1321	0.8742	0.8857	0.178
Mof_H 	H 	0.9972	0.8177	0.8857	0.067
Mof_O 	O 	0.0163	0.18277	0.6154	0.264
Mof_C 	C 	0.1137	0.0477	0.92	-0.726
Mof_H 	H 	0.1258	0.1321	0.8857	0.225
Mof_H 	H 	0.1823	0.9972	0.8857	-0.25
Mof_O 	O 	0.9837	0.81723	0.6154	-0.556
Mof_C 	C 	0.8863	0.9523	0.92	0.718
Mof_H 	H 	0.8742	0.8679	0.8857	-0.197
Mof_H 	H 	0.8177	0.0028	0.8857	0.26
Mof_O 	O 	0.81723	0.9837	0.6154	-0.556
Mof_C 	C 	0.9523	0.8863	0.92	0.718
Mof_H 	H 	0.8679	0.8742	0.8857	-0.197
Mof_H 	H 	0.0028	0.8177	0.8857	0.26
Mof_O 	O 	0.18277	0.0163	0.6154	0.264
Mof_C 	C 	0.0477	0.1137	0.92	-0.726
Mof_H 	H 	0.1321	0.1258	0.8857	0.225
Mof_H 	H 	0.9972	0.1823	0.8857	-0.25
Mof_O 	O 	0.0163	0.81723	0.6154	0.258
Mof_C 	C 	0.1137	0.9523	0.92	1.647
Mof_H 	H 	0.1258	0.8679	0.8857	-0.156
Mof_H 	H 	0.1823	0.0028	0.8857	-0.024
Mof_O 	O 	0.9837	0.18277	0.6154	-0.643
Mof_C 	C 	0.8863	0.0477	0.92	-1.62
Mof_H 	H 	0.8742	0.1321	0.8857	0.178
Mof_H 	H 	0.8177	0.9972	0.8857	0.067
Mof_O 	O 	0.18277	0.9837	0.3846	-0.643
Mof_C 	C 	0.0477	0.8863	0.08	-1.62
Mof_H 	H 	0.1321	0.8742	0.1143	0.178
Mof_H 	H 	0.9972	0.8177	0.1143	0.067
Mof_O 	O 	0.81723	0.0163	0.3846	0.258
Mof_C 	C 	0.9523	0.1137	0.08	1.647
Mof_H 	H 	0.8679	0.1258	0.1143	-0.156
Mof_H 	H 	0.0028	0.1823	0.1143	-0.024
Mof_O 	O 	0.9837	0.81723	0.3846	-0.556
Mof_C 	C 	0.8863	0.9523	0.08	0.718
Mof_H 	H 	0.8742	0.8679	0.1143	-0.197
Mof_H 	H 	0.8177	0.0028	0.1143	0.26
Mof_O 	O 	0.0163	0.18277	0.3846	0.264
Mof_C 	C 	0.1137	0.0477	0.08	-0.726
Mof_H 	H 	0.1258	0.1321	0.1143	0.225
Mof_H 	H 	0.1823	0.9972	0.1143	-0.25
Mof_Zn	Zn	-1.58983e-33	-2.73957e-33	0.35006	1.139
Mof_N 	N 	4.40766e-34	0	0.1342	-0.333
Mof_Zn	Zn	2.13466e-33	0	0.64994	1.139
Mof_N 	N 	-1.35938e-32	-1.09583e-32	0.8658	-0.333
Mof_C 	C 	0.23536	0	0.5	0.171
Mof_C 	C 	0.37258	0	0.5	-0.048
Mof_C 	C 	0.76464	0	0.5	0.2
Mof_C 	C 	0.62742	0	0.5	-0.026
Mof_C 	C 	-3.83694e-33	0.23536	0.5	0.171
Mof_C 	C 	1.6422e-33	0.37258	0.5	-0.048
Mof_C 	C 	1.6422e-33	0.76464	0.5	0.2
Mof_C 	C 	7.12133e-33	0.62742	0.5	-0.026
Mof_C 	C 	0.43663	-5.47914e-33	0.62269	-0.033
Mof_H 	H 	0.3938	0	0.7088	0.031
Mof_C 	C 	0.56337	-5.47914e-33	0.62269	-0.039
Mof_H 	H 	0.6062	0	0.7088	0.042
Mof_C 	C 	2.04516e-33	0.43663	0.62269	-0.033
Mof_H 	H 	-3.15116e-33	0.3938	0.7088	0.031
Mof_C 	C 	-3.43398e-33	0.56337	0.62269	-0.039
Mof_H 	H 	-8.63029e-33	0.6062	0.7088	0.042
Mof_C 	C 	0.56337	0	0.37731	-0.039
Mof_H 	H 	0.6062	0	0.2912	0.042
Mof_C 	C 	0.43663	0	0.37731	-0.033
Mof_H 	H 	0.3938	0	0.2912	0.031
Mof_C 	C 	1.23924e-33	0.43663	0.37731	-0.033
Mof_H 	H 	-4.52272e-33	0.3938	0.2912	0.031
Mof_C 	C 	6.71837e-33	0.56337	0.37731	-0.039
Mof_H 	H 	9.56416e-34	0.6062	0.2912	0.042
_end
