data_functionalizedCrystal
_audit_creation_method	'EQeq! by Chris Wilmer'
_symmetry_space_group_name_H-M	'P1'
_symmetry_Int_Tables_number	1
_symmetry_cell_setting	triclinic
loop_
_symmetry_equiv_pos_as_xyz
  x,y,z
_cell_length_a	18.7403
_cell_length_b	18.7403
_cell_length_c	41.2715
_cell_angle_alpha	90
_cell_angle_beta	90
_cell_angle_gamma	120
loop_
_atom_site_label
_atom_site_type_symbol
_atom_site_fract_x
_atom_site_fract_y
_atom_site_fract_z
_atom_site_charge
Mof_O 	O 	0.36665	0.11	0.62692	-0.402
Mof_C 	C 	0.4279	0.1205	0.64389	0.347
Mof_O 	O 	0.4448	0.14969	0.67172	-0.403
Mof_C 	C 	0.4866	0.1055	0.6273	-0.017
Mof_C 	C 	0.4743	0.0789	0.595	-0.081
Mof_H 	H 	0.4268	0.0706	0.5835	0.074
Mof_C 	C 	0.5653	0.022	0.5271	-0.245
Mof_N 	N 	0.4507	0.0247	0.5305	0.074
Mof_C 	C 	0.5356	0.9737	0.4674	-0.067
Mof_C 	C 	0.4828	0.0912	0.6286	-0.037
Mof_C 	C 	0.4622	0.049	0.6006	0.033
Mof_H 	H 	0.412	0.0367	0.5903	-0.009
Mof_H 	H 	0.6167	0.0254	0.5314	-0.712
Mof_H 	H 	0.5952	0.996	0.4634	0.884
Mof_H 	H 	0.5071	0.9129	0.4659	0.138
Mof_O 	O 	0.03332	0.44333	0.96025	-0.403
Mof_C 	C 	0.09457	0.45383	0.97722	0.347
Mof_O 	O 	0.11147	0.48302	0.00505	-0.404
Mof_C 	C 	0.15327	0.43883	0.96063	-0.018
Mof_C 	C 	0.14097	0.41223	0.92833	-0.084
Mof_H 	H 	0.09347	0.40393	0.91683	0.076
Mof_C 	C 	0.23197	0.35533	0.86043	-0.246
Mof_N 	N 	0.11737	0.35803	0.86383	0.072
Mof_C 	C 	0.20227	0.30703	0.80073	-0.069
Mof_C 	C 	0.14947	0.42453	0.96193	-0.037
Mof_C 	C 	0.12887	0.38233	0.93393	0.035
Mof_H 	H 	0.07867	0.37003	0.92363	-0.012
Mof_H 	H 	0.28337	0.35873	0.86473	-0.728
Mof_H 	H 	0.26187	0.32933	0.79673	0.879
Mof_H 	H 	0.17377	0.24623	0.79923	0.136
Mof_O 	O 	0.69998	0.77667	0.29359	-0.403
Mof_C 	C 	0.76123	0.78717	0.31056	0.346
Mof_O 	O 	0.77813	0.81636	0.33839	-0.404
Mof_C 	C 	0.81993	0.77217	0.29397	-0.018
Mof_C 	C 	0.80763	0.74557	0.26167	-0.085
Mof_H 	H 	0.76013	0.73727	0.25017	0.075
Mof_C 	C 	0.89863	0.68867	0.19377	-0.247
Mof_N 	N 	0.78403	0.69137	0.19717	0.072
Mof_C 	C 	0.86893	0.64037	0.13407	-0.069
Mof_C 	C 	0.81613	0.75787	0.29527	-0.037
Mof_C 	C 	0.79553	0.71567	0.26727	0.035
Mof_H 	H 	0.74533	0.70337	0.25697	-0.012
Mof_H 	H 	0.95003	0.69207	0.19807	-0.725
Mof_H 	H 	0.92853	0.66267	0.13007	0.877
Mof_H 	H 	0.84043	0.57957	0.13257	0.137
Mof_O 	O 	0.89	0.25665	0.62692	-0.403
Mof_C 	C 	0.8795	0.3074	0.64389	0.346
Mof_O 	O 	0.85031	0.29511	0.67172	-0.404
Mof_C 	C 	0.8945	0.3811	0.6273	-0.019
Mof_C 	C 	0.9211	0.3954	0.595	-0.089
Mof_H 	H 	0.9294	0.3562	0.5835	0.077
Mof_C 	C 	0.978	0.5433	0.5271	-0.248
Mof_N 	N 	0.9753	0.426	0.5305	0.073
Mof_C 	C 	0.0263	0.5619	0.4674	-0.071
Mof_C 	C 	0.9088	0.3916	0.6286	-0.037
Mof_C 	C 	0.951	0.4132	0.6006	0.038
Mof_H 	H 	0.9633	0.3753	0.5903	-0.014
Mof_H 	H 	0.9746	0.5913	0.5314	-0.738
Mof_H 	H 	0.004	0.5992	0.4634	0.856
Mof_H 	H 	0.0871	0.5942	0.4659	0.136
Mof_O 	O 	0.55667	0.58998	0.96025	-0.403
Mof_C 	C 	0.54617	0.64073	0.97722	0.346
Mof_O 	O 	0.51698	0.62844	0.00505	-0.404
Mof_C 	C 	0.56117	0.71443	0.96063	-0.018
Mof_C 	C 	0.58777	0.72873	0.92833	-0.086
Mof_H 	H 	0.59607	0.68953	0.91683	0.075
Mof_C 	C 	0.64467	0.87663	0.86043	-0.247
Mof_N 	N 	0.64197	0.75933	0.86383	0.072
Mof_C 	C 	0.69297	0.89523	0.80073	-0.07
Mof_C 	C 	0.57547	0.72493	0.96193	-0.037
Mof_C 	C 	0.61767	0.74653	0.93393	0.035
Mof_H 	H 	0.62997	0.70863	0.92363	-0.012
Mof_H 	H 	0.64127	0.92463	0.86473	-0.734
Mof_H 	H 	0.67067	0.93253	0.79673	0.869
Mof_H 	H 	0.75377	0.92753	0.79923	0.137
Mof_O 	O 	0.22333	0.92332	0.29359	-0.403
Mof_C 	C 	0.21283	0.97407	0.31056	0.348
Mof_O 	O 	0.18364	0.96178	0.33839	-0.404
Mof_C 	C 	0.22783	0.04777	0.29397	-0.019
Mof_C 	C 	0.25443	0.06207	0.26167	-0.085
Mof_H 	H 	0.26273	0.02287	0.25017	0.075
Mof_C 	C 	0.31133	0.20997	0.19377	-0.247
Mof_N 	N 	0.30863	0.09267	0.19717	0.072
Mof_C 	C 	0.35963	0.22857	0.13407	-0.069
Mof_C 	C 	0.24213	0.05827	0.29527	-0.038
Mof_C 	C 	0.28433	0.07987	0.26727	0.035
Mof_H 	H 	0.29663	0.04197	0.25697	-0.013
Mof_H 	H 	0.30793	0.25797	0.19807	-0.736
Mof_H 	H 	0.33733	0.26587	0.13007	0.871
Mof_H 	H 	0.42043	0.26087	0.13257	0.136
Mof_O 	O 	0.74335	0.63335	0.62692	-0.402
Mof_C 	C 	0.6926	0.5721	0.64389	0.346
Mof_O 	O 	0.70489	0.5552	0.67172	-0.404
Mof_C 	C 	0.6189	0.5134	0.6273	-0.018
Mof_C 	C 	0.6046	0.5257	0.595	-0.085
Mof_H 	H 	0.6438	0.5732	0.5835	0.075
Mof_C 	C 	0.4567	0.4347	0.5271	-0.247
Mof_N 	N 	0.574	0.5493	0.5305	0.072
Mof_C 	C 	0.4381	0.4644	0.4674	-0.069
Mof_C 	C 	0.6084	0.5172	0.6286	-0.037
Mof_C 	C 	0.5868	0.5378	0.6006	0.035
Mof_H 	H 	0.6247	0.588	0.5903	-0.012
Mof_H 	H 	0.4087	0.3833	0.5314	-0.734
Mof_H 	H 	0.4008	0.4048	0.4634	0.877
Mof_H 	H 	0.4058	0.4929	0.4659	0.137
Mof_O 	O 	0.41002	0.96668	0.96025	-0.402
Mof_C 	C 	0.35927	0.90543	0.97722	0.346
Mof_O 	O 	0.37156	0.88853	0.00505	-0.404
Mof_C 	C 	0.28557	0.84673	0.96063	-0.018
Mof_C 	C 	0.27127	0.85903	0.92833	-0.085
Mof_H 	H 	0.31047	0.90653	0.91683	0.075
Mof_C 	C 	0.12337	0.76803	0.86043	-0.247
Mof_N 	N 	0.24067	0.88263	0.86383	0.072
Mof_C 	C 	0.10477	0.79773	0.80073	-0.069
Mof_C 	C 	0.27507	0.85053	0.96193	-0.037
Mof_C 	C 	0.25347	0.87113	0.93393	0.035
Mof_H 	H 	0.29137	0.92133	0.92363	-0.012
Mof_H 	H 	0.07537	0.71663	0.86473	-0.732
Mof_H 	H 	0.06747	0.73813	0.79673	0.877
Mof_H 	H 	0.07247	0.82623	0.79923	0.137
Mof_O 	O 	0.07668	0.30002	0.29359	-0.403
Mof_C 	C 	0.02593	0.23877	0.31056	0.343
Mof_O 	O 	0.03822	0.22187	0.33839	-0.404
Mof_C 	C 	0.95223	0.18007	0.29397	-0.018
Mof_C 	C 	0.93793	0.19237	0.26167	-0.086
Mof_H 	H 	0.97713	0.23987	0.25017	0.076
Mof_C 	C 	0.79003	0.10137	0.19377	-0.247
Mof_N 	N 	0.90733	0.21597	0.19717	0.072
Mof_C 	C 	0.77143	0.13107	0.13407	-0.069
Mof_C 	C 	0.94173	0.18387	0.29527	-0.036
Mof_C 	C 	0.92013	0.20447	0.26727	0.035
Mof_H 	H 	0.95803	0.25467	0.25697	-0.012
Mof_H 	H 	0.74203	0.04997	0.19807	-0.734
Mof_H 	H 	0.73413	0.07147	0.13007	0.876
Mof_H 	H 	0.73913	0.15957	0.13257	0.136
Mof_O 	O 	0.11	0.36665	0.37308	-0.403
Mof_C 	C 	0.1205	0.4279	0.35611	0.346
Mof_O 	O 	0.14969	0.4448	0.32828	-0.404
Mof_C 	C 	0.1055	0.4866	0.3727	-0.018
Mof_C 	C 	0.0789	0.4743	0.405	-0.082
Mof_H 	H 	0.0706	0.4268	0.4165	0.073
Mof_C 	C 	0.022	0.5653	0.4729	-0.246
Mof_N 	N 	0.0247	0.4507	0.4695	0.073
Mof_C 	C 	0.9737	0.5356	0.5326	-0.068
Mof_C 	C 	0.0912	0.4828	0.3714	-0.038
Mof_C 	C 	0.049	0.4622	0.3994	0.032
Mof_H 	H 	0.0367	0.412	0.4097	-0.01
Mof_H 	H 	0.0254	0.6167	0.4686	-0.713
Mof_H 	H 	0.996	0.5952	0.5366	0.883
Mof_H 	H 	0.9129	0.5071	0.5341	0.137
Mof_O 	O 	0.77667	0.69998	0.70641	-0.403
Mof_C 	C 	0.78717	0.76123	0.68944	0.346
Mof_O 	O 	0.81636	0.77813	0.66161	-0.404
Mof_C 	C 	0.77217	0.81993	0.70603	-0.018
Mof_C 	C 	0.74557	0.80763	0.73833	-0.085
Mof_H 	H 	0.73727	0.76013	0.74983	0.075
Mof_C 	C 	0.68867	0.89863	0.80623	-0.247
Mof_N 	N 	0.69137	0.78403	0.80283	0.072
Mof_C 	C 	0.64037	0.86893	0.86593	-0.069
Mof_C 	C 	0.75787	0.81613	0.70473	-0.037
Mof_C 	C 	0.71567	0.79553	0.73273	0.035
Mof_H 	H 	0.70337	0.74533	0.74303	-0.012
Mof_H 	H 	0.69207	0.95003	0.80193	-0.725
Mof_H 	H 	0.66267	0.92853	0.86993	0.877
Mof_H 	H 	0.57957	0.84043	0.86743	0.137
Mof_O 	O 	0.44333	0.03332	0.03975	-0.404
Mof_C 	C 	0.45383	0.09457	0.02278	0.346
Mof_O 	O 	0.48302	0.11147	0.99495	-0.405
Mof_C 	C 	0.43883	0.15327	0.03937	-0.019
Mof_C 	C 	0.41223	0.14097	0.07167	-0.085
Mof_H 	H 	0.40393	0.09347	0.08317	0.075
Mof_C 	C 	0.35533	0.23197	0.13957	-0.247
Mof_N 	N 	0.35803	0.11737	0.13617	0.072
Mof_C 	C 	0.30703	0.20227	0.19927	-0.069
Mof_C 	C 	0.42453	0.14947	0.03807	-0.037
Mof_C 	C 	0.38233	0.12887	0.06607	0.035
Mof_H 	H 	0.37003	0.07867	0.07637	-0.012
Mof_H 	H 	0.35873	0.28337	0.13527	-0.728
Mof_H 	H 	0.32933	0.26187	0.20327	0.879
Mof_H 	H 	0.24623	0.17377	0.20077	0.136
Mof_O 	O 	0.25665	0.89	0.37308	-0.403
Mof_C 	C 	0.3074	0.8795	0.35611	0.346
Mof_O 	O 	0.29511	0.85031	0.32828	-0.404
Mof_C 	C 	0.3811	0.8945	0.3727	-0.019
Mof_C 	C 	0.3954	0.9211	0.405	-0.089
Mof_H 	H 	0.3562	0.9294	0.4165	0.077
Mof_C 	C 	0.5433	0.978	0.4729	-0.248
Mof_N 	N 	0.426	0.9753	0.4695	0.073
Mof_C 	C 	0.5619	0.0263	0.5326	-0.071
Mof_C 	C 	0.3916	0.9088	0.3714	-0.037
Mof_C 	C 	0.4132	0.951	0.3994	0.038
Mof_H 	H 	0.3753	0.9633	0.4097	-0.014
Mof_H 	H 	0.5913	0.9746	0.4686	-0.738
Mof_H 	H 	0.5992	0.004	0.5366	0.856
Mof_H 	H 	0.5942	0.0871	0.5341	0.136
Mof_O 	O 	0.92332	0.22333	0.70641	-0.403
Mof_C 	C 	0.97407	0.21283	0.68944	0.348
Mof_O 	O 	0.96178	0.18364	0.66161	-0.404
Mof_C 	C 	0.04777	0.22783	0.70603	-0.019
Mof_C 	C 	0.06207	0.25443	0.73833	-0.085
Mof_H 	H 	0.02287	0.26273	0.74983	0.075
Mof_C 	C 	0.20997	0.31133	0.80623	-0.247
Mof_N 	N 	0.09267	0.30863	0.80283	0.072
Mof_C 	C 	0.22857	0.35963	0.86593	-0.069
Mof_C 	C 	0.05827	0.24213	0.70473	-0.038
Mof_C 	C 	0.07987	0.28433	0.73273	0.035
Mof_H 	H 	0.04197	0.29663	0.74303	-0.013
Mof_H 	H 	0.25797	0.30793	0.80193	-0.736
Mof_H 	H 	0.26587	0.33733	0.86993	0.871
Mof_H 	H 	0.26087	0.42043	0.86743	0.136
Mof_O 	O 	0.58998	0.55667	0.03975	-0.403
Mof_C 	C 	0.64073	0.54617	0.02278	0.346
Mof_O 	O 	0.62844	0.51698	0.99495	-0.404
Mof_C 	C 	0.71443	0.56117	0.03937	-0.018
Mof_C 	C 	0.72873	0.58777	0.07167	-0.086
Mof_H 	H 	0.68953	0.59607	0.08317	0.075
Mof_C 	C 	0.87663	0.64467	0.13957	-0.247
Mof_N 	N 	0.75933	0.64197	0.13617	0.072
Mof_C 	C 	0.89523	0.69297	0.19927	-0.07
Mof_C 	C 	0.72493	0.57547	0.03807	-0.037
Mof_C 	C 	0.74653	0.61767	0.06607	0.035
Mof_H 	H 	0.70863	0.62997	0.07637	-0.012
Mof_H 	H 	0.92463	0.64127	0.13527	-0.734
Mof_H 	H 	0.93253	0.67067	0.20327	0.869
Mof_H 	H 	0.92753	0.75377	0.20077	0.137
Mof_O 	O 	0.63335	0.74335	0.37308	-0.402
Mof_C 	C 	0.5721	0.6926	0.35611	0.346
Mof_O 	O 	0.5552	0.70489	0.32828	-0.404
Mof_C 	C 	0.5134	0.6189	0.3727	-0.018
Mof_C 	C 	0.5257	0.6046	0.405	-0.085
Mof_H 	H 	0.5732	0.6438	0.4165	0.075
Mof_C 	C 	0.4347	0.4567	0.4729	-0.247
Mof_N 	N 	0.5493	0.574	0.4695	0.072
Mof_C 	C 	0.4644	0.4381	0.5326	-0.069
Mof_C 	C 	0.5172	0.6084	0.3714	-0.037
Mof_C 	C 	0.5378	0.5868	0.3994	0.035
Mof_H 	H 	0.588	0.6247	0.4097	-0.012
Mof_H 	H 	0.3833	0.4087	0.4686	-0.734
Mof_H 	H 	0.4048	0.4008	0.5366	0.877
Mof_H 	H 	0.4929	0.4058	0.5341	0.137
Mof_O 	O 	0.30002	0.07668	0.70641	-0.403
Mof_C 	C 	0.23877	0.02593	0.68944	0.343
Mof_O 	O 	0.22187	0.03822	0.66161	-0.404
Mof_C 	C 	0.18007	0.95223	0.70603	-0.018
Mof_C 	C 	0.19237	0.93793	0.73833	-0.086
Mof_H 	H 	0.23987	0.97713	0.74983	0.076
Mof_C 	C 	0.10137	0.79003	0.80623	-0.247
Mof_N 	N 	0.21597	0.90733	0.80283	0.072
Mof_C 	C 	0.13107	0.77143	0.86593	-0.069
Mof_C 	C 	0.18387	0.94173	0.70473	-0.036
Mof_C 	C 	0.20447	0.92013	0.73273	0.035
Mof_H 	H 	0.25467	0.95803	0.74303	-0.012
Mof_H 	H 	0.04997	0.74203	0.80193	-0.734
Mof_H 	H 	0.07147	0.73413	0.86993	0.876
Mof_H 	H 	0.15957	0.73913	0.86743	0.136
Mof_O 	O 	0.96668	0.41002	0.03975	-0.402
Mof_C 	C 	0.90543	0.35927	0.02278	0.346
Mof_O 	O 	0.88853	0.37156	0.99495	-0.404
Mof_C 	C 	0.84673	0.28557	0.03937	-0.018
Mof_C 	C 	0.85903	0.27127	0.07167	-0.085
Mof_H 	H 	0.90653	0.31047	0.08317	0.075
Mof_C 	C 	0.76803	0.12337	0.13957	-0.247
Mof_N 	N 	0.88263	0.24067	0.13617	0.072
Mof_C 	C 	0.79773	0.10477	0.19927	-0.069
Mof_C 	C 	0.85053	0.27507	0.03807	-0.037
Mof_C 	C 	0.87113	0.25347	0.06607	0.035
Mof_H 	H 	0.92133	0.29137	0.07637	-0.012
Mof_H 	H 	0.71663	0.07537	0.13527	-0.732
Mof_H 	H 	0.73813	0.06747	0.20327	0.877
Mof_H 	H 	0.82623	0.07247	0.20077	0.137
Mof_O 	O 	0.63335	0.89	0.37308	-0.402
Mof_C 	C 	0.5721	0.8795	0.35611	0.346
Mof_O 	O 	0.5552	0.85031	0.32828	-0.404
Mof_C 	C 	0.5134	0.8945	0.3727	-0.019
Mof_C 	C 	0.5257	0.9211	0.405	-0.089
Mof_H 	H 	0.5732	0.9294	0.4165	0.077
Mof_C 	C 	0.4347	0.978	0.4729	-0.248
Mof_N 	N 	0.5493	0.9753	0.4695	0.073
Mof_C 	C 	0.4644	0.0263	0.5326	-0.07
Mof_C 	C 	0.5172	0.9088	0.3714	-0.037
Mof_C 	C 	0.5378	0.951	0.3994	0.038
Mof_H 	H 	0.588	0.9633	0.4097	-0.013
Mof_H 	H 	0.3833	0.9746	0.4686	-0.74
Mof_H 	H 	0.4048	0.004	0.5366	0.858
Mof_H 	H 	0.4929	0.0871	0.5341	0.136
Mof_O 	O 	0.30002	0.22333	0.70641	-0.403
Mof_C 	C 	0.23877	0.21283	0.68944	0.346
Mof_O 	O 	0.22187	0.18364	0.66161	-0.405
Mof_C 	C 	0.18007	0.22783	0.70603	-0.019
Mof_C 	C 	0.19237	0.25443	0.73833	-0.086
Mof_H 	H 	0.23987	0.26273	0.74983	0.075
Mof_C 	C 	0.10137	0.31133	0.80623	-0.247
Mof_N 	N 	0.21597	0.30863	0.80283	0.072
Mof_C 	C 	0.13107	0.35963	0.86593	-0.069
Mof_C 	C 	0.18387	0.24213	0.70473	-0.037
Mof_C 	C 	0.20447	0.28433	0.73273	0.035
Mof_H 	H 	0.25467	0.29663	0.74303	-0.012
Mof_H 	H 	0.04997	0.30793	0.80193	-0.738
Mof_H 	H 	0.07147	0.33733	0.86993	0.871
Mof_H 	H 	0.15957	0.42043	0.86743	0.136
Mof_O 	O 	0.96668	0.55667	0.03975	-0.402
Mof_C 	C 	0.90543	0.54617	0.02278	0.346
Mof_O 	O 	0.88853	0.51698	0.99495	-0.404
Mof_C 	C 	0.84673	0.56117	0.03937	-0.018
Mof_C 	C 	0.85903	0.58777	0.07167	-0.086
Mof_H 	H 	0.90653	0.59607	0.08317	0.075
Mof_C 	C 	0.76803	0.64467	0.13957	-0.247
Mof_N 	N 	0.88263	0.64197	0.13617	0.072
Mof_C 	C 	0.79773	0.69297	0.19927	-0.069
Mof_C 	C 	0.85053	0.57547	0.03807	-0.037
Mof_C 	C 	0.87113	0.61767	0.06607	0.035
Mof_H 	H 	0.92133	0.62997	0.07637	-0.012
Mof_H 	H 	0.71663	0.64127	0.13527	-0.735
Mof_H 	H 	0.73813	0.67067	0.20327	0.872
Mof_H 	H 	0.82623	0.75377	0.20077	0.137
Mof_O 	O 	0.11	0.74335	0.37308	-0.403
Mof_C 	C 	0.1205	0.6926	0.35611	0.346
Mof_O 	O 	0.14969	0.70489	0.32828	-0.404
Mof_C 	C 	0.1055	0.6189	0.3727	-0.018
Mof_C 	C 	0.0789	0.6046	0.405	-0.082
Mof_H 	H 	0.0706	0.6438	0.4165	0.073
Mof_C 	C 	0.022	0.4567	0.4729	-0.246
Mof_N 	N 	0.0247	0.574	0.4695	0.073
Mof_C 	C 	0.9737	0.4381	0.5326	-0.068
Mof_C 	C 	0.0912	0.6084	0.3714	-0.038
Mof_C 	C 	0.049	0.5868	0.3994	0.032
Mof_H 	H 	0.0367	0.6247	0.4097	-0.01
Mof_H 	H 	0.0254	0.4087	0.4686	-0.715
Mof_H 	H 	0.996	0.4008	0.5366	0.884
Mof_H 	H 	0.9129	0.4058	0.5341	0.137
Mof_O 	O 	0.77667	0.07668	0.70641	-0.403
Mof_C 	C 	0.78717	0.02593	0.68944	0.343
Mof_O 	O 	0.81636	0.03822	0.66161	-0.404
Mof_C 	C 	0.77217	0.95223	0.70603	-0.018
Mof_C 	C 	0.74557	0.93793	0.73833	-0.086
Mof_H 	H 	0.73727	0.97713	0.74983	0.076
Mof_C 	C 	0.68867	0.79003	0.80623	-0.247
Mof_N 	N 	0.69137	0.90733	0.80283	0.072
Mof_C 	C 	0.64037	0.77143	0.86593	-0.069
Mof_C 	C 	0.75787	0.94173	0.70473	-0.035
Mof_C 	C 	0.71567	0.92013	0.73273	0.034
Mof_H 	H 	0.70337	0.95803	0.74303	-0.011
Mof_H 	H 	0.69207	0.74203	0.80193	-0.729
Mof_H 	H 	0.66267	0.73413	0.86993	0.879
Mof_H 	H 	0.57957	0.73913	0.86743	0.137
Mof_O 	O 	0.44333	0.41002	0.03975	-0.403
Mof_C 	C 	0.45383	0.35927	0.02278	0.346
Mof_O 	O 	0.48302	0.37156	0.99495	-0.404
Mof_C 	C 	0.43883	0.28557	0.03937	-0.019
Mof_C 	C 	0.41223	0.27127	0.07167	-0.085
Mof_H 	H 	0.40393	0.31047	0.08317	0.075
Mof_C 	C 	0.35533	0.12337	0.13957	-0.247
Mof_N 	N 	0.35803	0.24067	0.13617	0.072
Mof_C 	C 	0.30703	0.10477	0.19927	-0.068
Mof_C 	C 	0.42453	0.27507	0.03807	-0.037
Mof_C 	C 	0.38233	0.25347	0.06607	0.035
Mof_H 	H 	0.37003	0.29137	0.07637	-0.012
Mof_H 	H 	0.35873	0.07537	0.13527	-0.729
Mof_H 	H 	0.32933	0.06747	0.20327	0.881
Mof_H 	H 	0.24623	0.07247	0.20077	0.136
Mof_O 	O 	0.25665	0.36665	0.37308	-0.403
Mof_C 	C 	0.3074	0.4279	0.35611	0.346
Mof_O 	O 	0.29511	0.4448	0.32828	-0.404
Mof_C 	C 	0.3811	0.4866	0.3727	-0.019
Mof_C 	C 	0.3954	0.4743	0.405	-0.085
Mof_H 	H 	0.3562	0.4268	0.4165	0.075
Mof_C 	C 	0.5433	0.5653	0.4729	-0.247
Mof_N 	N 	0.426	0.4507	0.4695	0.072
Mof_C 	C 	0.5619	0.5356	0.5326	-0.069
Mof_C 	C 	0.3916	0.4828	0.3714	-0.037
Mof_C 	C 	0.4132	0.4622	0.3994	0.035
Mof_H 	H 	0.3753	0.412	0.4097	-0.012
Mof_H 	H 	0.5913	0.6167	0.4686	-0.73
Mof_H 	H 	0.5992	0.5952	0.5366	0.874
Mof_H 	H 	0.5942	0.5071	0.5341	0.137
Mof_O 	O 	0.92332	0.69998	0.70641	-0.402
Mof_C 	C 	0.97407	0.76123	0.68944	0.348
Mof_O 	O 	0.96178	0.77813	0.66161	-0.404
Mof_C 	C 	0.04777	0.81993	0.70603	-0.019
Mof_C 	C 	0.06207	0.80763	0.73833	-0.085
Mof_H 	H 	0.02287	0.76013	0.74983	0.075
Mof_C 	C 	0.20997	0.89863	0.80623	-0.247
Mof_N 	N 	0.09267	0.78403	0.80283	0.072
Mof_C 	C 	0.22857	0.86893	0.86593	-0.069
Mof_C 	C 	0.05827	0.81613	0.70473	-0.038
Mof_C 	C 	0.07987	0.79553	0.73273	0.035
Mof_H 	H 	0.04197	0.74533	0.74303	-0.012
Mof_H 	H 	0.25797	0.95003	0.80193	-0.728
Mof_H 	H 	0.26587	0.92853	0.86993	0.874
Mof_H 	H 	0.26087	0.84043	0.86743	0.137
Mof_O 	O 	0.58998	0.03332	0.03975	-0.404
Mof_C 	C 	0.64073	0.09457	0.02278	0.346
Mof_O 	O 	0.62844	0.11147	0.99495	-0.405
Mof_C 	C 	0.71443	0.15327	0.03937	-0.019
Mof_C 	C 	0.72873	0.14097	0.07167	-0.085
Mof_H 	H 	0.68953	0.09347	0.08317	0.075
Mof_C 	C 	0.87663	0.23197	0.13957	-0.247
Mof_N 	N 	0.75933	0.11737	0.13617	0.072
Mof_C 	C 	0.89523	0.20227	0.19927	-0.069
Mof_C 	C 	0.72493	0.14947	0.03807	-0.037
Mof_C 	C 	0.74653	0.12887	0.06607	0.035
Mof_H 	H 	0.70863	0.07867	0.07637	-0.012
Mof_H 	H 	0.92463	0.28337	0.13527	-0.73
Mof_H 	H 	0.93253	0.26187	0.20327	0.871
Mof_H 	H 	0.92753	0.17377	0.20077	0.137
Mof_O 	O 	0.89	0.63335	0.62692	-0.402
Mof_C 	C 	0.8795	0.5721	0.64389	0.346
Mof_O 	O 	0.85031	0.5552	0.67172	-0.404
Mof_C 	C 	0.8945	0.5134	0.6273	-0.019
Mof_C 	C 	0.9211	0.5257	0.595	-0.089
Mof_H 	H 	0.9294	0.5732	0.5835	0.077
Mof_C 	C 	0.978	0.4347	0.5271	-0.248
Mof_N 	N 	0.9753	0.5493	0.5305	0.073
Mof_C 	C 	0.0263	0.4644	0.4674	-0.07
Mof_C 	C 	0.9088	0.5172	0.6286	-0.037
Mof_C 	C 	0.951	0.5378	0.6006	0.038
Mof_H 	H 	0.9633	0.588	0.5903	-0.013
Mof_H 	H 	0.9746	0.3833	0.5314	-0.74
Mof_H 	H 	0.004	0.4048	0.4634	0.858
Mof_H 	H 	0.0871	0.4929	0.4659	0.136
Mof_O 	O 	0.55667	0.96668	0.96025	-0.402
Mof_C 	C 	0.54617	0.90543	0.97722	0.346
Mof_O 	O 	0.51698	0.88853	0.00505	-0.404
Mof_C 	C 	0.56117	0.84673	0.96063	-0.018
Mof_C 	C 	0.58777	0.85903	0.92833	-0.086
Mof_H 	H 	0.59607	0.90653	0.91683	0.075
Mof_C 	C 	0.64467	0.76803	0.86043	-0.247
Mof_N 	N 	0.64197	0.88263	0.86383	0.072
Mof_C 	C 	0.69297	0.79773	0.80073	-0.069
Mof_C 	C 	0.57547	0.85053	0.96193	-0.037
Mof_C 	C 	0.61767	0.87113	0.93393	0.035
Mof_H 	H 	0.62997	0.92133	0.92363	-0.012
Mof_H 	H 	0.64127	0.71663	0.86473	-0.735
Mof_H 	H 	0.67067	0.73813	0.79673	0.872
Mof_H 	H 	0.75377	0.82623	0.79923	0.137
Mof_O 	O 	0.22333	0.30002	0.29359	-0.403
Mof_C 	C 	0.21283	0.23877	0.31056	0.346
Mof_O 	O 	0.18364	0.22187	0.33839	-0.405
Mof_C 	C 	0.22783	0.18007	0.29397	-0.019
Mof_C 	C 	0.25443	0.19237	0.26167	-0.086
Mof_H 	H 	0.26273	0.23987	0.25017	0.075
Mof_C 	C 	0.31133	0.10137	0.19377	-0.247
Mof_N 	N 	0.30863	0.21597	0.19717	0.072
Mof_C 	C 	0.35963	0.13107	0.13407	-0.069
Mof_C 	C 	0.24213	0.18387	0.29527	-0.037
Mof_C 	C 	0.28433	0.20447	0.26727	0.035
Mof_H 	H 	0.29663	0.25467	0.25697	-0.012
Mof_H 	H 	0.30793	0.04997	0.19807	-0.738
Mof_H 	H 	0.33733	0.07147	0.13007	0.871
Mof_H 	H 	0.42043	0.15957	0.13257	0.136
Mof_O 	O 	0.74335	0.11	0.62692	-0.403
Mof_C 	C 	0.6926	0.1205	0.64389	0.346
Mof_O 	O 	0.70489	0.14969	0.67172	-0.404
Mof_C 	C 	0.6189	0.1055	0.6273	-0.018
Mof_C 	C 	0.6046	0.0789	0.595	-0.082
Mof_H 	H 	0.6438	0.0706	0.5835	0.073
Mof_C 	C 	0.4567	0.022	0.5271	-0.246
Mof_N 	N 	0.574	0.0247	0.5305	0.073
Mof_C 	C 	0.4381	0.9737	0.4674	-0.068
Mof_C 	C 	0.6084	0.0912	0.6286	-0.038
Mof_C 	C 	0.5868	0.049	0.6006	0.032
Mof_H 	H 	0.6247	0.0367	0.5903	-0.01
Mof_H 	H 	0.4087	0.0254	0.5314	-0.715
Mof_H 	H 	0.4008	0.996	0.4634	0.884
Mof_H 	H 	0.4058	0.9129	0.4659	0.137
Mof_O 	O 	0.41002	0.44333	0.96025	-0.403
Mof_C 	C 	0.35927	0.45383	0.97722	0.346
Mof_O 	O 	0.37156	0.48302	0.00505	-0.404
Mof_C 	C 	0.28557	0.43883	0.96063	-0.019
Mof_C 	C 	0.27127	0.41223	0.92833	-0.085
Mof_H 	H 	0.31047	0.40393	0.91683	0.075
Mof_C 	C 	0.12337	0.35533	0.86043	-0.247
Mof_N 	N 	0.24067	0.35803	0.86383	0.072
Mof_C 	C 	0.10477	0.30703	0.80073	-0.068
Mof_C 	C 	0.27507	0.42453	0.96193	-0.037
Mof_C 	C 	0.25347	0.38233	0.93393	0.035
Mof_H 	H 	0.29137	0.37003	0.92363	-0.012
Mof_H 	H 	0.07537	0.35873	0.86473	-0.729
Mof_H 	H 	0.06747	0.32933	0.79673	0.881
Mof_H 	H 	0.07247	0.24623	0.79923	0.136
Mof_O 	O 	0.07668	0.77667	0.29359	-0.403
Mof_C 	C 	0.02593	0.78717	0.31056	0.343
Mof_O 	O 	0.03822	0.81636	0.33839	-0.404
Mof_C 	C 	0.95223	0.77217	0.29397	-0.018
Mof_C 	C 	0.93793	0.74557	0.26167	-0.086
Mof_H 	H 	0.97713	0.73727	0.25017	0.076
Mof_C 	C 	0.79003	0.68867	0.19377	-0.247
Mof_N 	N 	0.90733	0.69137	0.19717	0.072
Mof_C 	C 	0.77143	0.64037	0.13407	-0.069
Mof_C 	C 	0.94173	0.75787	0.29527	-0.035
Mof_C 	C 	0.92013	0.71567	0.26727	0.034
Mof_H 	H 	0.95803	0.70337	0.25697	-0.011
Mof_H 	H 	0.74203	0.69207	0.19807	-0.729
Mof_H 	H 	0.73413	0.66267	0.13007	0.879
Mof_H 	H 	0.73913	0.57957	0.13257	0.137
Mof_O 	O 	0.36665	0.25665	0.62692	-0.403
Mof_C 	C 	0.4279	0.3074	0.64389	0.346
Mof_O 	O 	0.4448	0.29511	0.67172	-0.404
Mof_C 	C 	0.4866	0.3811	0.6273	-0.019
Mof_C 	C 	0.4743	0.3954	0.595	-0.085
Mof_H 	H 	0.4268	0.3562	0.5835	0.075
Mof_C 	C 	0.5653	0.5433	0.5271	-0.247
Mof_N 	N 	0.4507	0.426	0.5305	0.072
Mof_C 	C 	0.5356	0.5619	0.4674	-0.069
Mof_C 	C 	0.4828	0.3916	0.6286	-0.037
Mof_C 	C 	0.4622	0.4132	0.6006	0.035
Mof_H 	H 	0.412	0.3753	0.5903	-0.012
Mof_H 	H 	0.6167	0.5913	0.5314	-0.73
Mof_H 	H 	0.5952	0.5992	0.4634	0.874
Mof_H 	H 	0.5071	0.5942	0.4659	0.137
Mof_O 	O 	0.03332	0.58998	0.96025	-0.404
Mof_C 	C 	0.09457	0.64073	0.97722	0.346
Mof_O 	O 	0.11147	0.62844	0.00505	-0.405
Mof_C 	C 	0.15327	0.71443	0.96063	-0.019
Mof_C 	C 	0.14097	0.72873	0.92833	-0.085
Mof_H 	H 	0.09347	0.68953	0.91683	0.075
Mof_C 	C 	0.23197	0.87663	0.86043	-0.247
Mof_N 	N 	0.11737	0.75933	0.86383	0.072
Mof_C 	C 	0.20227	0.89523	0.80073	-0.069
Mof_C 	C 	0.14947	0.72493	0.96193	-0.037
Mof_C 	C 	0.12887	0.74653	0.93393	0.035
Mof_H 	H 	0.07867	0.70863	0.92363	-0.012
Mof_H 	H 	0.28337	0.92463	0.86473	-0.73
Mof_H 	H 	0.26187	0.93253	0.79673	0.871
Mof_H 	H 	0.17377	0.92753	0.79923	0.137
Mof_O 	O 	0.69998	0.92332	0.29359	-0.402
Mof_C 	C 	0.76123	0.97407	0.31056	0.348
Mof_O 	O 	0.77813	0.96178	0.33839	-0.404
Mof_C 	C 	0.81993	0.04777	0.29397	-0.019
Mof_C 	C 	0.80763	0.06207	0.26167	-0.085
Mof_H 	H 	0.76013	0.02287	0.25017	0.075
Mof_C 	C 	0.89863	0.20997	0.19377	-0.247
Mof_N 	N 	0.78403	0.09267	0.19717	0.072
Mof_C 	C 	0.86893	0.22857	0.13407	-0.069
Mof_C 	C 	0.81613	0.05827	0.29527	-0.038
Mof_C 	C 	0.79553	0.07987	0.26727	0.035
Mof_H 	H 	0.74533	0.04197	0.25697	-0.012
Mof_H 	H 	0.95003	0.25797	0.19807	-0.728
Mof_H 	H 	0.92853	0.26587	0.13007	0.874
Mof_H 	H 	0.84043	0.26087	0.13257	0.137
Mof_Cu	Cu	0.28764	0.14382	0.63978	0.907
Mof_Cu	Cu	0.95431	0.47715	0.97311	0.908
Mof_Cu	Cu	0.62097	0.81049	0.30644	0.908
Mof_Cu	Cu	0.85618	0.14382	0.63978	0.908
Mof_Cu	Cu	0.52285	0.47715	0.97311	0.908
Mof_Cu	Cu	0.18951	0.81049	0.30644	0.908
Mof_Cu	Cu	0.85618	0.71236	0.63978	0.908
Mof_Cu	Cu	0.52285	0.04569	0.97311	0.907
Mof_Cu	Cu	0.18951	0.37903	0.30644	0.908
Mof_Cu	Cu	0.14382	0.28764	0.36022	0.907
Mof_Cu	Cu	0.81049	0.62097	0.69356	0.908
Mof_Cu	Cu	0.47715	0.95431	0.02689	0.908
Mof_Cu	Cu	0.14382	0.85618	0.36022	0.908
Mof_Cu	Cu	0.81049	0.18951	0.69356	0.908
Mof_Cu	Cu	0.47715	0.52285	0.02689	0.908
Mof_Cu	Cu	0.71236	0.85618	0.36022	0.908
Mof_Cu	Cu	0.37903	0.18951	0.69356	0.908
Mof_Cu	Cu	0.04569	0.52285	0.02689	0.907
Mof_C 	C 	0.53255	0.0651	0.5801	-0.135
Mof_C 	C 	0.55855	0.1171	0.6429	-0.011
Mof_H 	H 	0.5668	0.1336	0.665	0.063
Mof_N 	N 	0.5191	0.0382	0.5469	0.082
Mof_O 	O 	0.5029	0.0058	0.4449	-0.305
Mof_C 	C 	0.5116	0.0232	0.5865	0.205
Mof_C 	C 	0.55505	0.1101	0.6449	0.005
Mof_C 	C 	0.19922	0.39843	0.91343	-0.142
Mof_C 	C 	0.22522	0.45043	0.97623	-0.012
Mof_H 	H 	0.23347	0.46693	0.99833	0.063
Mof_N 	N 	0.18577	0.37153	0.88023	0.089
Mof_O 	O 	0.16957	0.33913	0.77823	-0.297
Mof_C 	C 	0.17827	0.35653	0.91983	0.214
Mof_C 	C 	0.22172	0.44343	0.97823	0.005
Mof_C 	C 	0.86588	0.73177	0.24677	-0.142
Mof_C 	C 	0.89188	0.78377	0.30957	-0.012
Mof_H 	H 	0.90013	0.80027	0.33167	0.064
Mof_N 	N 	0.85243	0.70487	0.21357	0.089
Mof_O 	O 	0.83623	0.67247	0.11157	-0.296
Mof_C 	C 	0.84493	0.68987	0.25317	0.214
Mof_C 	C 	0.88838	0.77677	0.31157	0.005
Mof_C 	C 	0.9349	0.46745	0.5801	-0.15
Mof_C 	C 	0.8829	0.44145	0.6429	-0.012
Mof_H 	H 	0.8664	0.4332	0.665	0.063
Mof_N 	N 	0.9618	0.4809	0.5469	0.094
Mof_O 	O 	0.9942	0.4971	0.4449	-0.285
Mof_C 	C 	0.9768	0.4884	0.5865	0.224
Mof_C 	C 	0.8899	0.44495	0.6449	0.005
Mof_C 	C 	0.60157	0.80078	0.91343	-0.144
Mof_C 	C 	0.54957	0.77478	0.97623	-0.012
Mof_H 	H 	0.53307	0.76653	0.99833	0.063
Mof_N 	N 	0.62847	0.81423	0.88023	0.089
Mof_O 	O 	0.66087	0.83043	0.77823	-0.295
Mof_C 	C 	0.64347	0.82173	0.91983	0.216
Mof_C 	C 	0.55657	0.77828	0.97823	0.005
Mof_C 	C 	0.26823	0.13412	0.24677	-0.145
Mof_C 	C 	0.21623	0.10812	0.30957	-0.011
Mof_H 	H 	0.19973	0.09987	0.33167	0.062
Mof_N 	N 	0.29513	0.14757	0.21357	0.089
Mof_O 	O 	0.32753	0.16377	0.11157	-0.296
Mof_C 	C 	0.31013	0.15507	0.25317	0.216
Mof_C 	C 	0.22323	0.11162	0.31157	0.005
Mof_C 	C 	0.53255	0.46745	0.5801	-0.143
Mof_C 	C 	0.55855	0.44145	0.6429	-0.012
Mof_H 	H 	0.5668	0.4332	0.665	0.063
Mof_N 	N 	0.5191	0.4809	0.5469	0.089
Mof_O 	O 	0.5029	0.4971	0.4449	-0.296
Mof_C 	C 	0.5116	0.4884	0.5865	0.215
Mof_C 	C 	0.55505	0.44495	0.6449	0.005
Mof_C 	C 	0.19922	0.80078	0.91343	-0.143
Mof_C 	C 	0.22522	0.77478	0.97623	-0.012
Mof_H 	H 	0.23347	0.76653	0.99833	0.063
Mof_N 	N 	0.18577	0.81423	0.88023	0.089
Mof_O 	O 	0.16957	0.83043	0.77823	-0.296
Mof_C 	C 	0.17827	0.82173	0.91983	0.215
Mof_C 	C 	0.22172	0.77828	0.97823	0.005
Mof_C 	C 	0.86588	0.13412	0.24677	-0.143
Mof_C 	C 	0.89188	0.10812	0.30957	-0.012
Mof_H 	H 	0.90013	0.09987	0.33167	0.063
Mof_N 	N 	0.85243	0.14757	0.21357	0.089
Mof_O 	O 	0.83623	0.16377	0.11157	-0.296
Mof_C 	C 	0.84493	0.15507	0.25317	0.215
Mof_C 	C 	0.88838	0.11162	0.31157	0.005
Mof_C 	C 	0.0651	0.53255	0.4199	-0.135
Mof_C 	C 	0.1171	0.55855	0.3571	-0.011
Mof_H 	H 	0.1336	0.5668	0.335	0.063
Mof_N 	N 	0.0382	0.5191	0.4531	0.082
Mof_O 	O 	0.0058	0.5029	0.5551	-0.305
Mof_C 	C 	0.0232	0.5116	0.4135	0.205
Mof_C 	C 	0.1101	0.55505	0.3551	0.005
Mof_C 	C 	0.73177	0.86588	0.75323	-0.142
Mof_C 	C 	0.78377	0.89188	0.69043	-0.012
Mof_H 	H 	0.80027	0.90013	0.66833	0.064
Mof_N 	N 	0.70487	0.85243	0.78643	0.089
Mof_O 	O 	0.67247	0.83623	0.88843	-0.296
Mof_C 	C 	0.68987	0.84493	0.74683	0.214
Mof_C 	C 	0.77677	0.88838	0.68843	0.005
Mof_C 	C 	0.39843	0.19922	0.08657	-0.142
Mof_C 	C 	0.45043	0.22522	0.02377	-0.012
Mof_H 	H 	0.46693	0.23347	0.00167	0.063
Mof_N 	N 	0.37153	0.18577	0.11977	0.089
Mof_O 	O 	0.33913	0.16957	0.22177	-0.297
Mof_C 	C 	0.35653	0.17827	0.08017	0.214
Mof_C 	C 	0.44343	0.22172	0.02177	0.005
Mof_C 	C 	0.46745	0.9349	0.4199	-0.15
Mof_C 	C 	0.44145	0.8829	0.3571	-0.012
Mof_H 	H 	0.4332	0.8664	0.335	0.063
Mof_N 	N 	0.4809	0.9618	0.4531	0.094
Mof_O 	O 	0.4971	0.9942	0.5551	-0.285
Mof_C 	C 	0.4884	0.9768	0.4135	0.224
Mof_C 	C 	0.44495	0.8899	0.3551	0.005
Mof_C 	C 	0.13412	0.26823	0.75323	-0.145
Mof_C 	C 	0.10812	0.21623	0.69043	-0.011
Mof_H 	H 	0.09987	0.19973	0.66833	0.062
Mof_N 	N 	0.14757	0.29513	0.78643	0.089
Mof_O 	O 	0.16377	0.32753	0.88843	-0.296
Mof_C 	C 	0.15507	0.31013	0.74683	0.216
Mof_C 	C 	0.11162	0.22323	0.68843	0.005
Mof_C 	C 	0.80078	0.60157	0.08657	-0.144
Mof_C 	C 	0.77478	0.54957	0.02377	-0.012
Mof_H 	H 	0.76653	0.53307	0.00167	0.063
Mof_N 	N 	0.81423	0.62847	0.11977	0.089
Mof_O 	O 	0.83043	0.66087	0.22177	-0.295
Mof_C 	C 	0.82173	0.64347	0.08017	0.216
Mof_C 	C 	0.77828	0.55657	0.02177	0.005
Mof_C 	C 	0.46745	0.53255	0.4199	-0.143
Mof_C 	C 	0.44145	0.55855	0.3571	-0.012
Mof_H 	H 	0.4332	0.5668	0.335	0.063
Mof_N 	N 	0.4809	0.5191	0.4531	0.089
Mof_O 	O 	0.4971	0.5029	0.5551	-0.296
Mof_C 	C 	0.4884	0.5116	0.4135	0.215
Mof_C 	C 	0.44495	0.55505	0.3551	0.005
Mof_C 	C 	0.13412	0.86588	0.75323	-0.143
Mof_C 	C 	0.10812	0.89188	0.69043	-0.012
Mof_H 	H 	0.09987	0.90013	0.66833	0.063
Mof_N 	N 	0.14757	0.85243	0.78643	0.089
Mof_O 	O 	0.16377	0.83623	0.88843	-0.296
Mof_C 	C 	0.15507	0.84493	0.74683	0.215
Mof_C 	C 	0.11162	0.88838	0.68843	0.005
Mof_C 	C 	0.80078	0.19922	0.08657	-0.143
Mof_C 	C 	0.77478	0.22522	0.02377	-0.012
Mof_H 	H 	0.76653	0.23347	0.00167	0.063
Mof_N 	N 	0.81423	0.18577	0.11977	0.089
Mof_O 	O 	0.83043	0.16957	0.22177	-0.296
Mof_C 	C 	0.82173	0.17827	0.08017	0.215
Mof_C 	C 	0.77828	0.22172	0.02177	0.005
Mof_C 	C 	0.522	0	0.5	0.736
Mof_N 	N 	0.4489	0	0.5	-0.632
Mof_C 	C 	0.18867	0.33333	0.83333	0.736
Mof_N 	N 	0.11557	0.33333	0.83333	-0.63
Mof_C 	C 	0.85533	0.66667	0.16667	0.736
Mof_N 	N 	0.78223	0.66667	0.16667	-0.631
Mof_C 	C 	-2.61692e-17	0.522	0.5	0.736
Mof_N 	N 	-6.23965e-17	0.4489	0.5	-0.632
Mof_C 	C 	0.66667	0.85533	0.83333	0.736
Mof_N 	N 	0.66667	0.78223	0.83333	-0.631
Mof_C 	C 	0.33333	0.18867	0.16667	0.736
Mof_N 	N 	0.33333	0.11557	0.16667	-0.63
Mof_C 	C 	0.478	0.478	0.5	0.736
Mof_N 	N 	0.5511	0.5511	0.5	-0.63
Mof_C 	C 	0.14467	0.81133	0.83333	0.736
Mof_N 	N 	0.21777	0.88443	0.83333	-0.63
Mof_C 	C 	0.81133	0.14467	0.16667	0.736
Mof_N 	N 	0.88443	0.21777	0.16667	-0.63
Mof_C 	C 	0.478	0	0.5	0.737
Mof_N 	N 	0.5511	0	0.5	-0.632
Mof_C 	C 	0.14467	0.33333	0.83333	0.736
Mof_N 	N 	0.21777	0.33333	0.83333	-0.63
Mof_C 	C 	0.81133	0.66667	0.16667	0.737
Mof_N 	N 	0.88443	0.66667	0.16667	-0.631
Mof_C 	C 	-6.23965e-17	0.478	0.5	0.737
Mof_N 	N 	-6.23965e-17	0.5511	0.5	-0.632
Mof_C 	C 	0.66667	0.81133	0.83333	0.737
Mof_N 	N 	0.66667	0.88443	0.83333	-0.631
Mof_C 	C 	0.33333	0.14467	0.16667	0.736
Mof_N 	N 	0.33333	0.21777	0.16667	-0.63
Mof_C 	C 	0.522	0.522	0.5	0.736
Mof_N 	N 	0.4489	0.4489	0.5	-0.63
Mof_C 	C 	0.18867	0.85533	0.83333	0.736
Mof_N 	N 	0.11557	0.78223	0.83333	-0.631
Mof_C 	C 	0.85533	0.18867	0.16667	0.736
Mof_N 	N 	0.78223	0.11557	0.16667	-0.631
_end
