data_functionalizedCrystal
_audit_creation_method	'EQeq! by Chris Wilmer'
_symmetry_space_group_name_H-M	'P1'
_symmetry_Int_Tables_number	1
_symmetry_cell_setting	triclinic
loop_
_symmetry_equiv_pos_as_xyz
  x,y,z
_cell_length_a	9.086
_cell_length_b	9.086
_cell_length_c	19.164
_cell_angle_alpha	90
_cell_angle_beta	90
_cell_angle_gamma	120
loop_
_atom_site_label
_atom_site_type_symbol
_atom_site_fract_x
_atom_site_fract_y
_atom_site_fract_z
_atom_site_charge
Mof_C 	C 	0.6212	0.7714	0.4102	-2.544
Mof_H 	H 	0.6072	0.687	0.379	0.695
Mof_C 	C 	0.6541	0.9369	0.3923	2.955
Mof_H 	H 	0.6656	0.9798	0.3474	-0.058
Mof_C 	C 	0.6666	0.0253	0.4552	-1.877
Mof_H 	H 	0.6876	0.1362	0.4586	0.811
Mof_C 	C 	0.6413	0.9144	0.5119	1.271
Mof_H 	H 	0.6429	0.9401	0.559	-0.155
Mof_C 	C 	0.6133	0.7576	0.4841	-3.019
Mof_H 	H 	0.5932	0.6625	0.5098	1.572
Mof_C 	C 	0.6192	0.843	0.4044	0.731
Mof_H 	H 	0.6044	0.9129	0.3732	-2.15
Mof_C 	C 	0.6444	0.7055	0.3866	0.383
Mof_H 	H 	0.649	0.6695	0.3416	-0.165
Mof_C 	C 	0.6613	0.6326	0.4495	0.494
Mof_H 	H 	0.6789	0.5404	0.4529	-0.275
Mof_C 	C 	0.6465	0.725	0.5062	-0.83
Mof_H 	H 	0.6528	0.7041	0.5533	-0.046
Mof_C 	C 	0.6205	0.8551	0.4783	2.655
Mof_H 	H 	0.6068	0.9343	0.504	-1.512
Mof_O 	O 	0.9943	0.9938	0.2705	-1.162
Mof_O 	O 	0.0082	0.0004	0.6059	-2.304
Mof_C 	C 	0.9599	0.0134	0.2441	6.214
Mof_C 	C 	0.0299	0.1356	0.1603	-8.592
Mof_C 	C 	0.9155	0.0216	0.1621	7.903
Mof_C 	C 	0.0478	0.1384	0.2288	-2.83
Mof_C 	C 	0.2286	0.8498	0.4102	2.791
Mof_H 	H 	0.313	0.9202	0.379	-1.395
Mof_C 	C 	0.0631	0.7172	0.3923	-1.761
Mof_H 	H 	0.0202	0.6858	0.3474	0.046
Mof_C 	C 	0.9747	0.6413	0.4552	0.924
Mof_H 	H 	0.8638	0.5514	0.4586	-0.584
Mof_C 	C 	0.0856	0.7269	0.5119	-0.398
Mof_H 	H 	0.0599	0.7028	0.559	-0.028
Mof_C 	C 	0.2424	0.8557	0.4841	3.827
Mof_H 	H 	0.3375	0.9307	0.5098	-3.446
Mof_C 	C 	0.157	0.7762	0.4044	-1.597
Mof_H 	H 	0.0871	0.6915	0.3732	1.809
Mof_C 	C 	0.2945	0.9389	0.3866	0.389
Mof_H 	H 	0.3305	0.9795	0.3416	0.424
Mof_C 	C 	0.3674	0.0287	0.4495	-1.968
Mof_H 	H 	0.4596	0.1385	0.4529	0.887
Mof_C 	C 	0.275	0.9215	0.5062	3.682
Mof_H 	H 	0.2959	0.9487	0.5533	-0.49
Mof_C 	C 	0.1449	0.7654	0.4783	-6.556
Mof_H 	H 	0.0657	0.6725	0.504	2.506
Mof_O 	O 	0.0062	0.0005	0.2705	-5.036
Mof_O 	O 	0.9996	0.0078	0.6059	-0.717
Mof_C 	C 	0.9866	0.9465	0.2441	9.096
Mof_C 	C 	0.8644	0.8943	0.1603	-6.402
Mof_C 	C 	0.9784	0.8939	0.1621	5.506
Mof_C 	C 	0.8616	0.9094	0.2288	-6.834
Mof_C 	C 	0.1502	0.3788	0.4102	-1.602
Mof_H 	H 	0.0798	0.3928	0.379	0.678
Mof_C 	C 	0.2828	0.3459	0.3923	1.316
Mof_H 	H 	0.3142	0.3344	0.3474	0.218
Mof_C 	C 	0.3587	0.3334	0.4552	-1.794
Mof_H 	H 	0.4486	0.3124	0.4586	0.663
Mof_C 	C 	0.2731	0.3587	0.5119	1.057
Mof_H 	H 	0.2972	0.3571	0.559	0.015
Mof_C 	C 	0.1443	0.3867	0.4841	-2.395
Mof_H 	H 	0.0693	0.4068	0.5098	1.627
Mof_C 	C 	0.2238	0.3808	0.4044	0.723
Mof_H 	H 	0.3085	0.3956	0.3732	-1.095
Mof_C 	C 	0.0611	0.3556	0.3866	0.014
Mof_H 	H 	0.0205	0.351	0.3416	0.091
Mof_C 	C 	0.9713	0.3387	0.4495	-0.203
Mof_H 	H 	0.8615	0.3211	0.4529	-0.135
Mof_C 	C 	0.0785	0.3535	0.5062	-1.08
Mof_H 	H 	0.0513	0.3472	0.5533	0.133
Mof_C 	C 	0.2346	0.3795	0.4783	2.375
Mof_H 	H 	0.3275	0.3932	0.504	-1.235
Mof_O 	O 	0.9995	0.0057	0.2705	-3.166
Mof_O 	O 	0.9922	0.9918	0.6059	1.418
Mof_C 	C 	0.0535	0.0401	0.2441	3.913
Mof_C 	C 	0.1057	0.9701	0.1603	-6.717
Mof_C 	C 	0.1061	0.0845	0.1621	8.844
Mof_C 	C 	0.0906	0.9522	0.2288	-5.087
Mof_C 	C 	0.3788	0.2286	0.9102	1.821
Mof_H 	H 	0.3928	0.313	0.879	-0.751
Mof_C 	C 	0.3459	0.0631	0.8923	-1.383
Mof_H 	H 	0.3344	0.0202	0.8474	0.185
Mof_C 	C 	0.3334	0.9747	0.9552	0.212
Mof_H 	H 	0.3124	0.8638	0.9586	-0.285
Mof_C 	C 	0.3587	0.0856	0.0119	-0.006
Mof_H 	H 	0.3571	0.0599	0.059	0.018
Mof_C 	C 	0.3867	0.2424	0.9841	2.29
Mof_H 	H 	0.4068	0.3375	0.0098	-2.024
Mof_C 	C 	0.3808	0.157	0.9044	-0.914
Mof_H 	H 	0.3956	0.0871	0.8732	1.292
Mof_C 	C 	0.3556	0.2945	0.8866	0.122
Mof_H 	H 	0.351	0.3305	0.8416	0.4
Mof_C 	C 	0.3387	0.3674	0.9495	-1.777
Mof_H 	H 	0.3211	0.4596	0.9529	0.667
Mof_C 	C 	0.3535	0.275	0.0062	2.319
Mof_H 	H 	0.3472	0.2959	0.0533	-0.243
Mof_C 	C 	0.3795	0.1449	0.9783	-4.112
Mof_H 	H 	0.3932	0.0657	0.004	1.476
Mof_O 	O 	0.0057	0.0062	0.7705	-5.132
Mof_O 	O 	0.9918	0.9996	0.1059	1.553
Mof_C 	C 	0.0401	0.9866	0.7441	6.614
Mof_C 	C 	0.9701	0.8644	0.6603	-5.99
Mof_C 	C 	0.0845	0.9784	0.6621	7.042
Mof_C 	C 	0.9522	0.8616	0.7288	-7.021
Mof_C 	C 	0.7714	0.1502	0.9102	-3.316
Mof_H 	H 	0.687	0.0798	0.879	1.33
Mof_C 	C 	0.9369	0.2828	0.8923	3.087
Mof_H 	H 	0.9798	0.3142	0.8474	0.125
Mof_C 	C 	0.0253	0.3587	0.9552	-2.507
Mof_H 	H 	0.1362	0.4486	0.9586	1.063
Mof_C 	C 	0.9144	0.2731	0.0119	1.697
Mof_H 	H 	0.9401	0.2972	0.059	-0.124
Mof_C 	C 	0.7576	0.1443	0.9841	-4.38
Mof_H 	H 	0.6625	0.0693	0.0098	2.768
Mof_C 	C 	0.843	0.2238	0.9044	1.398
Mof_H 	H 	0.9129	0.3085	0.8732	-2.511
Mof_C 	C 	0.7055	0.0611	0.8866	0.045
Mof_H 	H 	0.6695	0.0205	0.8416	-0.119
Mof_C 	C 	0.6326	0.9713	0.9495	0.53
Mof_H 	H 	0.5404	0.8615	0.9529	-0.443
Mof_C 	C 	0.725	0.0785	0.0062	-1.943
Mof_H 	H 	0.7041	0.0513	0.0533	0.135
Mof_C 	C 	0.8551	0.2346	0.9783	4.886
Mof_H 	H 	0.9343	0.3275	0.004	-2.531
Mof_O 	O 	0.9938	0.9995	0.7705	-1.264
Mof_O 	O 	0.0004	0.9922	0.1059	-1.008
Mof_C 	C 	0.0134	0.0535	0.7441	3.701
Mof_C 	C 	0.1356	0.1057	0.6603	-8.105
Mof_C 	C 	0.0216	0.1061	0.6621	9.115
Mof_C 	C 	0.1384	0.0906	0.7288	-3.078
Mof_C 	C 	0.8498	0.6212	0.9102	0.566
Mof_H 	H 	0.9202	0.6072	0.879	-0.625
Mof_C 	C 	0.7172	0.6541	0.8923	0.413
Mof_H 	H 	0.6858	0.6656	0.8474	-0.098
Mof_C 	C 	0.6413	0.6666	0.9552	-0.136
Mof_H 	H 	0.5514	0.6876	0.9586	-0.033
Mof_C 	C 	0.7269	0.6413	0.0119	0.361
Mof_H 	H 	0.7028	0.6429	0.059	-0.116
Mof_C 	C 	0.8557	0.6133	0.9841	1.106
Mof_H 	H 	0.9307	0.5932	0.0098	-1.717
Mof_C 	C 	0.7762	0.6192	0.9044	-0.741
Mof_H 	H 	0.6915	0.6044	0.8732	0.079
Mof_C 	C 	0.9389	0.6444	0.8866	0.491
Mof_H 	H 	0.9795	0.649	0.8416	0.131
Mof_C 	C 	0.0287	0.6613	0.9495	-0.859
Mof_H 	H 	0.1385	0.6789	0.9529	0.426
Mof_C 	C 	0.9215	0.6465	0.0062	2.224
Mof_H 	H 	0.9487	0.6528	0.0533	-0.413
Mof_C 	C 	0.7654	0.6205	0.9783	-3.084
Mof_H 	H 	0.6725	0.6068	0.004	0.894
Mof_O 	O 	0.0005	0.9943	0.7705	-2.943
Mof_O 	O 	0.0078	0.0082	0.1059	-2.156
Mof_C 	C 	0.9465	0.9599	0.7441	8.843
Mof_C 	C 	0.8943	0.0299	0.6603	-7.367
Mof_C 	C 	0.8939	0.9155	0.6621	5.847
Mof_C 	C 	0.9094	0.0478	0.7288	-4.6
Mof_Mn	Mn	0.33333	0.66667	0.44584	1.334
Mof_Mn	Mn	0.66667	0.33333	0.94584	1.387
Mof_K 	K 	-9.21209e-33	0	0.4247	3.408
Mof_K 	K 	-9.21209e-33	0	0.4749	3.838
Mof_K 	K 	-0	-3.68484e-32	0.9247	3.315
Mof_K 	K 	1.84242e-32	3.68484e-32	0.9749	3.885
_end
