data_functionalizedCrystal
_audit_creation_method	'EQeq! by Chris Wilmer'
_symmetry_space_group_name_H-M	'P1'
_symmetry_Int_Tables_number	1
_symmetry_cell_setting	triclinic
loop_
_symmetry_equiv_pos_as_xyz
  x,y,z
_cell_length_a	46.806
_cell_length_b	46.806
_cell_length_c	46.806
_cell_angle_alpha	90
_cell_angle_beta	90
_cell_angle_gamma	90
loop_
_atom_site_label
_atom_site_type_symbol
_atom_site_fract_x
_atom_site_fract_y
_atom_site_fract_z
_atom_site_charge
Mof_C 	C 	0.30217	0.97813	0.78431	-0.085
Mof_H 	H 	0.3151	0.9631	0.7852	0.058
Mof_C 	C 	0.28008	0.9795	0.76294	-0.016
Mof_H 	H 	0.2793	0.9648	0.7496	0.027
Mof_C 	C 	0.30217	0.47813	0.28431	-0.086
Mof_H 	H 	0.3151	0.4631	0.2852	0.058
Mof_C 	C 	0.28008	0.4795	0.26294	-0.017
Mof_H 	H 	0.2793	0.4648	0.2496	0.027
Mof_C 	C 	0.80217	0.97813	0.28431	-0.085
Mof_H 	H 	0.8151	0.9631	0.2852	0.058
Mof_C 	C 	0.78008	0.9795	0.26294	-0.016
Mof_H 	H 	0.7793	0.9648	0.2496	0.028
Mof_C 	C 	0.80217	0.47813	0.78431	-0.087
Mof_H 	H 	0.8151	0.4631	0.7852	0.058
Mof_C 	C 	0.78008	0.4795	0.76294	-0.017
Mof_H 	H 	0.7793	0.4648	0.7496	0.028
Mof_C 	C 	0.69783	0.02187	0.78431	-0.086
Mof_H 	H 	0.6849	0.0369	0.7852	0.058
Mof_C 	C 	0.71992	0.0205	0.76294	-0.016
Mof_H 	H 	0.7207	0.0352	0.7496	0.028
Mof_C 	C 	0.69783	0.52187	0.28431	-0.085
Mof_H 	H 	0.6849	0.5369	0.2852	0.059
Mof_C 	C 	0.71992	0.5205	0.26294	-0.016
Mof_H 	H 	0.7207	0.5352	0.2496	0.028
Mof_C 	C 	0.19783	0.02187	0.28431	-0.085
Mof_H 	H 	0.1849	0.0369	0.2852	0.059
Mof_C 	C 	0.21992	0.0205	0.26294	-0.016
Mof_H 	H 	0.2207	0.0352	0.2496	0.028
Mof_C 	C 	0.19783	0.52187	0.78431	-0.085
Mof_H 	H 	0.1849	0.5369	0.7852	0.059
Mof_C 	C 	0.21992	0.5205	0.76294	-0.016
Mof_H 	H 	0.2207	0.5352	0.7496	0.028
Mof_C 	C 	0.69783	0.97813	0.21569	-0.084
Mof_H 	H 	0.6849	0.9631	0.2148	0.059
Mof_C 	C 	0.71992	0.9795	0.23706	-0.015
Mof_H 	H 	0.7207	0.9648	0.2504	0.028
Mof_C 	C 	0.69783	0.47813	0.71569	-0.085
Mof_H 	H 	0.6849	0.4631	0.7148	0.059
Mof_C 	C 	0.71992	0.4795	0.73706	-0.016
Mof_H 	H 	0.7207	0.4648	0.7504	0.029
Mof_C 	C 	0.19783	0.97813	0.71569	-0.084
Mof_H 	H 	0.1849	0.9631	0.7148	0.059
Mof_C 	C 	0.21992	0.9795	0.73706	-0.015
Mof_H 	H 	0.2207	0.9648	0.7504	0.029
Mof_C 	C 	0.19783	0.47813	0.21569	-0.085
Mof_H 	H 	0.1849	0.4631	0.2148	0.059
Mof_C 	C 	0.21992	0.4795	0.23706	-0.016
Mof_H 	H 	0.2207	0.4648	0.2504	0.028
Mof_C 	C 	0.30217	0.02187	0.21569	-0.085
Mof_H 	H 	0.3151	0.0369	0.2148	0.059
Mof_C 	C 	0.28008	0.0205	0.23706	-0.016
Mof_H 	H 	0.2793	0.0352	0.2504	0.028
Mof_C 	C 	0.30217	0.52187	0.71569	-0.085
Mof_H 	H 	0.3151	0.5369	0.7148	0.059
Mof_C 	C 	0.28008	0.5205	0.73706	-0.016
Mof_H 	H 	0.2793	0.5352	0.7504	0.029
Mof_C 	C 	0.80217	0.02187	0.71569	-0.085
Mof_H 	H 	0.8151	0.0369	0.7148	0.059
Mof_C 	C 	0.78008	0.0205	0.73706	-0.016
Mof_H 	H 	0.7793	0.0352	0.7504	0.029
Mof_C 	C 	0.80217	0.52187	0.21569	-0.085
Mof_H 	H 	0.8151	0.5369	0.2148	0.059
Mof_C 	C 	0.78008	0.5205	0.23706	-0.016
Mof_H 	H 	0.7793	0.5352	0.2504	0.029
Mof_C 	C 	0.78431	0.30217	0.97813	-0.084
Mof_H 	H 	0.7852	0.3151	0.9631	0.059
Mof_C 	C 	0.76294	0.28008	0.9795	-0.015
Mof_H 	H 	0.7496	0.2793	0.9648	0.028
Mof_C 	C 	0.78431	0.80217	0.47813	-0.086
Mof_H 	H 	0.7852	0.8151	0.4631	0.059
Mof_C 	C 	0.76294	0.78008	0.4795	-0.016
Mof_H 	H 	0.7496	0.7793	0.4648	0.029
Mof_C 	C 	0.28431	0.30217	0.47813	-0.085
Mof_H 	H 	0.2852	0.3151	0.4631	0.059
Mof_C 	C 	0.26294	0.28008	0.4795	-0.016
Mof_H 	H 	0.2496	0.2793	0.4648	0.028
Mof_C 	C 	0.28431	0.80217	0.97813	-0.084
Mof_H 	H 	0.2852	0.8151	0.9631	0.059
Mof_C 	C 	0.26294	0.78008	0.9795	-0.015
Mof_H 	H 	0.2496	0.7793	0.9648	0.029
Mof_C 	C 	0.78431	0.69783	0.02187	-0.085
Mof_H 	H 	0.7852	0.6849	0.0369	0.059
Mof_C 	C 	0.76294	0.71992	0.0205	-0.016
Mof_H 	H 	0.7496	0.7207	0.0352	0.028
Mof_C 	C 	0.78431	0.19783	0.52187	-0.085
Mof_H 	H 	0.7852	0.1849	0.5369	0.059
Mof_C 	C 	0.76294	0.21992	0.5205	-0.016
Mof_H 	H 	0.7496	0.2207	0.5352	0.028
Mof_C 	C 	0.28431	0.69783	0.52187	-0.085
Mof_H 	H 	0.2852	0.6849	0.5369	0.059
Mof_C 	C 	0.26294	0.71992	0.5205	-0.016
Mof_H 	H 	0.2496	0.7207	0.5352	0.028
Mof_C 	C 	0.28431	0.19783	0.02187	-0.085
Mof_H 	H 	0.2852	0.1849	0.0369	0.059
Mof_C 	C 	0.26294	0.21992	0.0205	-0.016
Mof_H 	H 	0.2496	0.2207	0.0352	0.028
Mof_C 	C 	0.21569	0.69783	0.97813	-0.084
Mof_H 	H 	0.2148	0.6849	0.9631	0.059
Mof_C 	C 	0.23706	0.71992	0.9795	-0.015
Mof_H 	H 	0.2504	0.7207	0.9648	0.028
Mof_C 	C 	0.21569	0.19783	0.47813	-0.085
Mof_H 	H 	0.2148	0.1849	0.4631	0.059
Mof_C 	C 	0.23706	0.21992	0.4795	-0.016
Mof_H 	H 	0.2504	0.2207	0.4648	0.028
Mof_C 	C 	0.71569	0.69783	0.47813	-0.085
Mof_H 	H 	0.7148	0.6849	0.4631	0.059
Mof_C 	C 	0.73706	0.71992	0.4795	-0.016
Mof_H 	H 	0.7504	0.7207	0.4648	0.029
Mof_C 	C 	0.71569	0.19783	0.97813	-0.084
Mof_H 	H 	0.7148	0.1849	0.9631	0.059
Mof_C 	C 	0.73706	0.21992	0.9795	-0.015
Mof_H 	H 	0.7504	0.2207	0.9648	0.029
Mof_C 	C 	0.21569	0.30217	0.02187	-0.085
Mof_H 	H 	0.2148	0.3151	0.0369	0.059
Mof_C 	C 	0.23706	0.28008	0.0205	-0.016
Mof_H 	H 	0.2504	0.2793	0.0352	0.028
Mof_C 	C 	0.21569	0.80217	0.52187	-0.085
Mof_H 	H 	0.2148	0.8151	0.5369	0.059
Mof_C 	C 	0.23706	0.78008	0.5205	-0.016
Mof_H 	H 	0.2504	0.7793	0.5352	0.029
Mof_C 	C 	0.71569	0.30217	0.52187	-0.085
Mof_H 	H 	0.7148	0.3151	0.5369	0.059
Mof_C 	C 	0.73706	0.28008	0.5205	-0.016
Mof_H 	H 	0.7504	0.2793	0.5352	0.029
Mof_C 	C 	0.71569	0.80217	0.02187	-0.085
Mof_H 	H 	0.7148	0.8151	0.0369	0.059
Mof_C 	C 	0.73706	0.78008	0.0205	-0.016
Mof_H 	H 	0.7504	0.7793	0.0352	0.029
Mof_C 	C 	0.97813	0.78431	0.30217	-0.084
Mof_H 	H 	0.9631	0.7852	0.3151	0.059
Mof_C 	C 	0.9795	0.76294	0.28008	-0.015
Mof_H 	H 	0.9648	0.7496	0.2793	0.028
Mof_C 	C 	0.97813	0.28431	0.80217	-0.084
Mof_H 	H 	0.9631	0.2852	0.8151	0.059
Mof_C 	C 	0.9795	0.26294	0.78008	-0.015
Mof_H 	H 	0.9648	0.2496	0.7793	0.029
Mof_C 	C 	0.47813	0.78431	0.80217	-0.086
Mof_H 	H 	0.4631	0.7852	0.8151	0.059
Mof_C 	C 	0.4795	0.76294	0.78008	-0.016
Mof_H 	H 	0.4648	0.7496	0.7793	0.029
Mof_C 	C 	0.47813	0.28431	0.30217	-0.085
Mof_H 	H 	0.4631	0.2852	0.3151	0.059
Mof_C 	C 	0.4795	0.26294	0.28008	-0.016
Mof_H 	H 	0.4648	0.2496	0.2793	0.028
Mof_C 	C 	0.02187	0.78431	0.69783	-0.085
Mof_H 	H 	0.0369	0.7852	0.6849	0.059
Mof_C 	C 	0.0205	0.76294	0.71992	-0.016
Mof_H 	H 	0.0352	0.7496	0.7207	0.028
Mof_C 	C 	0.02187	0.28431	0.19783	-0.085
Mof_H 	H 	0.0369	0.2852	0.1849	0.059
Mof_C 	C 	0.0205	0.26294	0.21992	-0.016
Mof_H 	H 	0.0352	0.2496	0.2207	0.028
Mof_C 	C 	0.52187	0.78431	0.19783	-0.085
Mof_H 	H 	0.5369	0.7852	0.1849	0.059
Mof_C 	C 	0.5205	0.76294	0.21992	-0.016
Mof_H 	H 	0.5352	0.7496	0.2207	0.028
Mof_C 	C 	0.52187	0.28431	0.69783	-0.085
Mof_H 	H 	0.5369	0.2852	0.6849	0.059
Mof_C 	C 	0.5205	0.26294	0.71992	-0.016
Mof_H 	H 	0.5352	0.2496	0.7207	0.028
Mof_C 	C 	0.97813	0.21569	0.69783	-0.084
Mof_H 	H 	0.9631	0.2148	0.6849	0.059
Mof_C 	C 	0.9795	0.23706	0.71992	-0.015
Mof_H 	H 	0.9648	0.2504	0.7207	0.028
Mof_C 	C 	0.97813	0.71569	0.19783	-0.084
Mof_H 	H 	0.9631	0.7148	0.1849	0.059
Mof_C 	C 	0.9795	0.73706	0.21992	-0.015
Mof_H 	H 	0.9648	0.7504	0.2207	0.029
Mof_C 	C 	0.47813	0.21569	0.19783	-0.085
Mof_H 	H 	0.4631	0.2148	0.1849	0.059
Mof_C 	C 	0.4795	0.23706	0.21992	-0.016
Mof_H 	H 	0.4648	0.2504	0.2207	0.028
Mof_C 	C 	0.47813	0.71569	0.69783	-0.085
Mof_H 	H 	0.4631	0.7148	0.6849	0.059
Mof_C 	C 	0.4795	0.73706	0.71992	-0.016
Mof_H 	H 	0.4648	0.7504	0.7207	0.029
Mof_C 	C 	0.02187	0.21569	0.30217	-0.085
Mof_H 	H 	0.0369	0.2148	0.3151	0.059
Mof_C 	C 	0.0205	0.23706	0.28008	-0.016
Mof_H 	H 	0.0352	0.2504	0.2793	0.028
Mof_C 	C 	0.02187	0.71569	0.80217	-0.085
Mof_H 	H 	0.0369	0.7148	0.8151	0.059
Mof_C 	C 	0.0205	0.73706	0.78008	-0.016
Mof_H 	H 	0.0352	0.7504	0.7793	0.029
Mof_C 	C 	0.52187	0.21569	0.80217	-0.085
Mof_H 	H 	0.5369	0.2148	0.8151	0.059
Mof_C 	C 	0.5205	0.23706	0.78008	-0.016
Mof_H 	H 	0.5352	0.2504	0.7793	0.029
Mof_C 	C 	0.52187	0.71569	0.30217	-0.085
Mof_H 	H 	0.5369	0.7148	0.3151	0.059
Mof_C 	C 	0.5205	0.73706	0.28008	-0.016
Mof_H 	H 	0.5352	0.7504	0.2793	0.029
Mof_C 	C 	0.97813	0.30217	0.21569	-0.084
Mof_H 	H 	0.9631	0.3151	0.2148	0.059
Mof_C 	C 	0.9795	0.28008	0.23706	-0.015
Mof_H 	H 	0.9648	0.2793	0.2504	0.028
Mof_C 	C 	0.97813	0.80217	0.71569	-0.084
Mof_H 	H 	0.9631	0.8151	0.7148	0.059
Mof_C 	C 	0.9795	0.78008	0.73706	-0.015
Mof_H 	H 	0.9648	0.7793	0.7504	0.029
Mof_C 	C 	0.47813	0.30217	0.71569	-0.085
Mof_H 	H 	0.4631	0.3151	0.7148	0.059
Mof_C 	C 	0.4795	0.28008	0.73706	-0.016
Mof_H 	H 	0.4648	0.2793	0.7504	0.029
Mof_C 	C 	0.47813	0.80217	0.21569	-0.085
Mof_H 	H 	0.4631	0.8151	0.2148	0.059
Mof_C 	C 	0.4795	0.78008	0.23706	-0.016
Mof_H 	H 	0.4648	0.7793	0.2504	0.029
Mof_C 	C 	0.02187	0.69783	0.21569	-0.085
Mof_H 	H 	0.0369	0.6849	0.2148	0.059
Mof_C 	C 	0.0205	0.71992	0.23706	-0.016
Mof_H 	H 	0.0352	0.7207	0.2504	0.028
Mof_C 	C 	0.02187	0.19783	0.71569	-0.085
Mof_H 	H 	0.0369	0.1849	0.7148	0.059
Mof_C 	C 	0.0205	0.21992	0.73706	-0.016
Mof_H 	H 	0.0352	0.2207	0.7504	0.028
Mof_C 	C 	0.52187	0.69783	0.71569	-0.085
Mof_H 	H 	0.5369	0.6849	0.7148	0.059
Mof_C 	C 	0.5205	0.71992	0.73706	-0.016
Mof_H 	H 	0.5352	0.7207	0.7504	0.029
Mof_C 	C 	0.52187	0.19783	0.21569	-0.085
Mof_H 	H 	0.5369	0.1849	0.2148	0.059
Mof_C 	C 	0.5205	0.21992	0.23706	-0.016
Mof_H 	H 	0.5352	0.2207	0.2504	0.028
Mof_C 	C 	0.97813	0.69783	0.78431	-0.084
Mof_H 	H 	0.9631	0.6849	0.7852	0.059
Mof_C 	C 	0.9795	0.71992	0.76294	-0.015
Mof_H 	H 	0.9648	0.7207	0.7496	0.029
Mof_C 	C 	0.97813	0.19783	0.28431	-0.084
Mof_H 	H 	0.9631	0.1849	0.2852	0.059
Mof_C 	C 	0.9795	0.21992	0.26294	-0.015
Mof_H 	H 	0.9648	0.2207	0.2496	0.028
Mof_C 	C 	0.47813	0.69783	0.28431	-0.085
Mof_H 	H 	0.4631	0.6849	0.2852	0.059
Mof_C 	C 	0.4795	0.71992	0.26294	-0.016
Mof_H 	H 	0.4648	0.7207	0.2496	0.028
Mof_C 	C 	0.47813	0.19783	0.78431	-0.085
Mof_H 	H 	0.4631	0.1849	0.7852	0.059
Mof_C 	C 	0.4795	0.21992	0.76294	-0.016
Mof_H 	H 	0.4648	0.2207	0.7496	0.028
Mof_C 	C 	0.02187	0.30217	0.78431	-0.085
Mof_H 	H 	0.0369	0.3151	0.7852	0.059
Mof_C 	C 	0.0205	0.28008	0.76294	-0.016
Mof_H 	H 	0.0352	0.2793	0.7496	0.028
Mof_C 	C 	0.02187	0.80217	0.28431	-0.085
Mof_H 	H 	0.0369	0.8151	0.2852	0.059
Mof_C 	C 	0.0205	0.78008	0.26294	-0.016
Mof_H 	H 	0.0352	0.7793	0.2496	0.028
Mof_C 	C 	0.52187	0.30217	0.28431	-0.085
Mof_H 	H 	0.5369	0.3151	0.2852	0.059
Mof_C 	C 	0.5205	0.28008	0.26294	-0.016
Mof_H 	H 	0.5352	0.2793	0.2496	0.028
Mof_C 	C 	0.52187	0.80217	0.78431	-0.086
Mof_H 	H 	0.5369	0.8151	0.7852	0.059
Mof_C 	C 	0.5205	0.78008	0.76294	-0.016
Mof_H 	H 	0.5352	0.7793	0.7496	0.029
Mof_C 	C 	0.30217	0.78431	0.02187	-0.085
Mof_H 	H 	0.3151	0.7852	0.0369	0.059
Mof_C 	C 	0.28008	0.76294	0.0205	-0.016
Mof_H 	H 	0.2793	0.7496	0.0352	0.028
Mof_C 	C 	0.30217	0.28431	0.52187	-0.085
Mof_H 	H 	0.3151	0.2852	0.5369	0.059
Mof_C 	C 	0.28008	0.26294	0.5205	-0.016
Mof_H 	H 	0.2793	0.2496	0.5352	0.028
Mof_C 	C 	0.80217	0.78431	0.52187	-0.086
Mof_H 	H 	0.8151	0.7852	0.5369	0.059
Mof_C 	C 	0.78008	0.76294	0.5205	-0.016
Mof_H 	H 	0.7793	0.7496	0.5352	0.029
Mof_C 	C 	0.80217	0.28431	0.02187	-0.085
Mof_H 	H 	0.8151	0.2852	0.0369	0.059
Mof_C 	C 	0.78008	0.26294	0.0205	-0.016
Mof_H 	H 	0.7793	0.2496	0.0352	0.028
Mof_C 	C 	0.69783	0.78431	0.97813	-0.084
Mof_H 	H 	0.6849	0.7852	0.9631	0.059
Mof_C 	C 	0.71992	0.76294	0.9795	-0.015
Mof_H 	H 	0.7207	0.7496	0.9648	0.029
Mof_C 	C 	0.69783	0.28431	0.47813	-0.085
Mof_H 	H 	0.6849	0.2852	0.4631	0.059
Mof_C 	C 	0.71992	0.26294	0.4795	-0.016
Mof_H 	H 	0.7207	0.2496	0.4648	0.028
Mof_C 	C 	0.19783	0.78431	0.47813	-0.085
Mof_H 	H 	0.1849	0.7852	0.4631	0.059
Mof_C 	C 	0.21992	0.76294	0.4795	-0.016
Mof_H 	H 	0.2207	0.7496	0.4648	0.028
Mof_C 	C 	0.19783	0.28431	0.97813	-0.084
Mof_H 	H 	0.1849	0.2852	0.9631	0.059
Mof_C 	C 	0.21992	0.26294	0.9795	-0.015
Mof_H 	H 	0.2207	0.2496	0.9648	0.028
Mof_C 	C 	0.69783	0.21569	0.02187	-0.085
Mof_H 	H 	0.6849	0.2148	0.0369	0.059
Mof_C 	C 	0.71992	0.23706	0.0205	-0.016
Mof_H 	H 	0.7207	0.2504	0.0352	0.028
Mof_C 	C 	0.69783	0.71569	0.52187	-0.085
Mof_H 	H 	0.6849	0.7148	0.5369	0.059
Mof_C 	C 	0.71992	0.73706	0.5205	-0.016
Mof_H 	H 	0.7207	0.7504	0.5352	0.029
Mof_C 	C 	0.19783	0.21569	0.52187	-0.085
Mof_H 	H 	0.1849	0.2148	0.5369	0.059
Mof_C 	C 	0.21992	0.23706	0.5205	-0.016
Mof_H 	H 	0.2207	0.2504	0.5352	0.028
Mof_C 	C 	0.19783	0.71569	0.02187	-0.085
Mof_H 	H 	0.1849	0.7148	0.0369	0.059
Mof_C 	C 	0.21992	0.73706	0.0205	-0.016
Mof_H 	H 	0.2207	0.7504	0.0352	0.028
Mof_C 	C 	0.30217	0.21569	0.97813	-0.084
Mof_H 	H 	0.3151	0.2148	0.9631	0.059
Mof_C 	C 	0.28008	0.23706	0.9795	-0.015
Mof_H 	H 	0.2793	0.2504	0.9648	0.028
Mof_C 	C 	0.30217	0.71569	0.47813	-0.085
Mof_H 	H 	0.3151	0.7148	0.4631	0.059
Mof_C 	C 	0.28008	0.73706	0.4795	-0.016
Mof_H 	H 	0.2793	0.7504	0.4648	0.029
Mof_C 	C 	0.80217	0.21569	0.47813	-0.085
Mof_H 	H 	0.8151	0.2148	0.4631	0.059
Mof_C 	C 	0.78008	0.23706	0.4795	-0.016
Mof_H 	H 	0.7793	0.2504	0.4648	0.029
Mof_C 	C 	0.80217	0.71569	0.97813	-0.084
Mof_H 	H 	0.8151	0.7148	0.9631	0.059
Mof_C 	C 	0.78008	0.73706	0.9795	-0.015
Mof_H 	H 	0.7793	0.7504	0.9648	0.029
Mof_C 	C 	0.78431	0.97813	0.69783	-0.084
Mof_H 	H 	0.7852	0.9631	0.6849	0.059
Mof_C 	C 	0.76294	0.9795	0.71992	-0.015
Mof_H 	H 	0.7496	0.9648	0.7207	0.029
Mof_C 	C 	0.78431	0.47813	0.19783	-0.085
Mof_H 	H 	0.7852	0.4631	0.1849	0.059
Mof_C 	C 	0.76294	0.4795	0.21992	-0.016
Mof_H 	H 	0.7496	0.4648	0.2207	0.028
Mof_C 	C 	0.28431	0.97813	0.19783	-0.084
Mof_H 	H 	0.2852	0.9631	0.1849	0.059
Mof_C 	C 	0.26294	0.9795	0.21992	-0.015
Mof_H 	H 	0.2496	0.9648	0.2207	0.028
Mof_C 	C 	0.28431	0.47813	0.69783	-0.085
Mof_H 	H 	0.2852	0.4631	0.6849	0.059
Mof_C 	C 	0.26294	0.4795	0.71992	-0.016
Mof_H 	H 	0.2496	0.4648	0.7207	0.028
Mof_C 	C 	0.78431	0.02187	0.30217	-0.085
Mof_H 	H 	0.7852	0.0369	0.3151	0.059
Mof_C 	C 	0.76294	0.0205	0.28008	-0.016
Mof_H 	H 	0.7496	0.0352	0.2793	0.028
Mof_C 	C 	0.78431	0.52187	0.80217	-0.086
Mof_H 	H 	0.7852	0.5369	0.8151	0.059
Mof_C 	C 	0.76294	0.5205	0.78008	-0.016
Mof_H 	H 	0.7496	0.5352	0.7793	0.029
Mof_C 	C 	0.28431	0.02187	0.80217	-0.085
Mof_H 	H 	0.2852	0.0369	0.8151	0.059
Mof_C 	C 	0.26294	0.0205	0.78008	-0.016
Mof_H 	H 	0.2496	0.0352	0.7793	0.028
Mof_C 	C 	0.28431	0.52187	0.30217	-0.085
Mof_H 	H 	0.2852	0.5369	0.3151	0.059
Mof_C 	C 	0.26294	0.5205	0.28008	-0.016
Mof_H 	H 	0.2496	0.5352	0.2793	0.028
Mof_C 	C 	0.21569	0.97813	0.30217	-0.084
Mof_H 	H 	0.2148	0.9631	0.3151	0.059
Mof_C 	C 	0.23706	0.9795	0.28008	-0.015
Mof_H 	H 	0.2504	0.9648	0.2793	0.028
Mof_C 	C 	0.21569	0.47813	0.80217	-0.085
Mof_H 	H 	0.2148	0.4631	0.8151	0.059
Mof_C 	C 	0.23706	0.4795	0.78008	-0.016
Mof_H 	H 	0.2504	0.4648	0.7793	0.029
Mof_C 	C 	0.71569	0.97813	0.80217	-0.084
Mof_H 	H 	0.7148	0.9631	0.8151	0.059
Mof_C 	C 	0.73706	0.9795	0.78008	-0.015
Mof_H 	H 	0.7504	0.9648	0.7793	0.029
Mof_C 	C 	0.71569	0.47813	0.30217	-0.085
Mof_H 	H 	0.7148	0.4631	0.3151	0.059
Mof_C 	C 	0.73706	0.4795	0.28008	-0.016
Mof_H 	H 	0.7504	0.4648	0.2793	0.029
Mof_C 	C 	0.21569	0.02187	0.69783	-0.085
Mof_H 	H 	0.2148	0.0369	0.6849	0.059
Mof_C 	C 	0.23706	0.0205	0.71992	-0.016
Mof_H 	H 	0.2504	0.0352	0.7207	0.028
Mof_C 	C 	0.21569	0.52187	0.19783	-0.085
Mof_H 	H 	0.2148	0.5369	0.1849	0.059
Mof_C 	C 	0.23706	0.5205	0.21992	-0.016
Mof_H 	H 	0.2504	0.5352	0.2207	0.028
Mof_C 	C 	0.71569	0.02187	0.19783	-0.085
Mof_H 	H 	0.7148	0.0369	0.1849	0.059
Mof_C 	C 	0.73706	0.0205	0.21992	-0.016
Mof_H 	H 	0.7504	0.0352	0.2207	0.028
Mof_C 	C 	0.71569	0.52187	0.69783	-0.085
Mof_H 	H 	0.7148	0.5369	0.6849	0.059
Mof_C 	C 	0.73706	0.5205	0.71992	-0.016
Mof_H 	H 	0.7504	0.5352	0.7207	0.029
Mof_C 	C 	0.69783	0.02187	0.21569	-0.085
Mof_H 	H 	0.6849	0.0369	0.2148	0.059
Mof_C 	C 	0.71992	0.0205	0.23706	-0.016
Mof_H 	H 	0.7207	0.0352	0.2504	0.028
Mof_C 	C 	0.69783	0.52187	0.71569	-0.085
Mof_H 	H 	0.6849	0.5369	0.7148	0.059
Mof_C 	C 	0.71992	0.5205	0.73706	-0.016
Mof_H 	H 	0.7207	0.5352	0.7504	0.029
Mof_C 	C 	0.19783	0.02187	0.71569	-0.085
Mof_H 	H 	0.1849	0.0369	0.7148	0.059
Mof_C 	C 	0.21992	0.0205	0.73706	-0.016
Mof_H 	H 	0.2207	0.0352	0.7504	0.028
Mof_C 	C 	0.19783	0.52187	0.21569	-0.085
Mof_H 	H 	0.1849	0.5369	0.2148	0.059
Mof_C 	C 	0.21992	0.5205	0.23706	-0.016
Mof_H 	H 	0.2207	0.5352	0.2504	0.028
Mof_C 	C 	0.30217	0.97813	0.21569	-0.084
Mof_H 	H 	0.3151	0.9631	0.2148	0.059
Mof_C 	C 	0.28008	0.9795	0.23706	-0.015
Mof_H 	H 	0.2793	0.9648	0.2504	0.028
Mof_C 	C 	0.30217	0.47813	0.71569	-0.085
Mof_H 	H 	0.3151	0.4631	0.7148	0.059
Mof_C 	C 	0.28008	0.4795	0.73706	-0.016
Mof_H 	H 	0.2793	0.4648	0.7504	0.029
Mof_C 	C 	0.80217	0.97813	0.71569	-0.084
Mof_H 	H 	0.8151	0.9631	0.7148	0.059
Mof_C 	C 	0.78008	0.9795	0.73706	-0.015
Mof_H 	H 	0.7793	0.9648	0.7504	0.029
Mof_C 	C 	0.80217	0.47813	0.21569	-0.085
Mof_H 	H 	0.8151	0.4631	0.2148	0.059
Mof_C 	C 	0.78008	0.4795	0.23706	-0.016
Mof_H 	H 	0.7793	0.4648	0.2504	0.029
Mof_C 	C 	0.30217	0.02187	0.78431	-0.085
Mof_H 	H 	0.3151	0.0369	0.7852	0.059
Mof_C 	C 	0.28008	0.0205	0.76294	-0.016
Mof_H 	H 	0.2793	0.0352	0.7496	0.028
Mof_C 	C 	0.30217	0.52187	0.28431	-0.085
Mof_H 	H 	0.3151	0.5369	0.2852	0.059
Mof_C 	C 	0.28008	0.5205	0.26294	-0.016
Mof_H 	H 	0.2793	0.5352	0.2496	0.028
Mof_C 	C 	0.80217	0.02187	0.28431	-0.085
Mof_H 	H 	0.8151	0.0369	0.2852	0.059
Mof_C 	C 	0.78008	0.0205	0.26294	-0.016
Mof_H 	H 	0.7793	0.0352	0.2496	0.028
Mof_C 	C 	0.80217	0.52187	0.78431	-0.086
Mof_H 	H 	0.8151	0.5369	0.7852	0.059
Mof_C 	C 	0.78008	0.5205	0.76294	-0.016
Mof_H 	H 	0.7793	0.5352	0.7496	0.029
Mof_C 	C 	0.69783	0.97813	0.78431	-0.084
Mof_H 	H 	0.6849	0.9631	0.7852	0.059
Mof_C 	C 	0.71992	0.9795	0.76294	-0.015
Mof_H 	H 	0.7207	0.9648	0.7496	0.029
Mof_C 	C 	0.69783	0.47813	0.28431	-0.085
Mof_H 	H 	0.6849	0.4631	0.2852	0.059
Mof_C 	C 	0.71992	0.4795	0.26294	-0.016
Mof_H 	H 	0.7207	0.4648	0.2496	0.028
Mof_C 	C 	0.19783	0.97813	0.28431	-0.084
Mof_H 	H 	0.1849	0.9631	0.2852	0.059
Mof_C 	C 	0.21992	0.9795	0.26294	-0.015
Mof_H 	H 	0.2207	0.9648	0.2496	0.028
Mof_C 	C 	0.19783	0.47813	0.78431	-0.085
Mof_H 	H 	0.1849	0.4631	0.7852	0.059
Mof_C 	C 	0.21992	0.4795	0.76294	-0.016
Mof_H 	H 	0.2207	0.4648	0.7496	0.028
Mof_C 	C 	0.21569	0.69783	0.02187	-0.085
Mof_H 	H 	0.2148	0.6849	0.0369	0.059
Mof_C 	C 	0.23706	0.71992	0.0205	-0.016
Mof_H 	H 	0.2504	0.7207	0.0352	0.028
Mof_C 	C 	0.21569	0.19783	0.52187	-0.085
Mof_H 	H 	0.2148	0.1849	0.5369	0.059
Mof_C 	C 	0.23706	0.21992	0.5205	-0.016
Mof_H 	H 	0.2504	0.2207	0.5352	0.028
Mof_C 	C 	0.71569	0.69783	0.52187	-0.085
Mof_H 	H 	0.7148	0.6849	0.5369	0.059
Mof_C 	C 	0.73706	0.71992	0.5205	-0.016
Mof_H 	H 	0.7504	0.7207	0.5352	0.029
Mof_C 	C 	0.71569	0.19783	0.02187	-0.085
Mof_H 	H 	0.7148	0.1849	0.0369	0.059
Mof_C 	C 	0.73706	0.21992	0.0205	-0.016
Mof_H 	H 	0.7504	0.2207	0.0352	0.028
Mof_C 	C 	0.21569	0.30217	0.97813	-0.084
Mof_H 	H 	0.2148	0.3151	0.9631	0.059
Mof_C 	C 	0.23706	0.28008	0.9795	-0.015
Mof_H 	H 	0.2504	0.2793	0.9648	0.028
Mof_C 	C 	0.21569	0.80217	0.47813	-0.085
Mof_H 	H 	0.2148	0.8151	0.4631	0.059
Mof_C 	C 	0.23706	0.78008	0.4795	-0.016
Mof_H 	H 	0.2504	0.7793	0.4648	0.029
Mof_C 	C 	0.71569	0.30217	0.47813	-0.085
Mof_H 	H 	0.7148	0.3151	0.4631	0.059
Mof_C 	C 	0.73706	0.28008	0.4795	-0.016
Mof_H 	H 	0.7504	0.2793	0.4648	0.029
Mof_C 	C 	0.71569	0.80217	0.97813	-0.084
Mof_H 	H 	0.7148	0.8151	0.9631	0.059
Mof_C 	C 	0.73706	0.78008	0.9795	-0.015
Mof_H 	H 	0.7504	0.7793	0.9648	0.029
Mof_C 	C 	0.78431	0.30217	0.02187	-0.085
Mof_H 	H 	0.7852	0.3151	0.0369	0.059
Mof_C 	C 	0.76294	0.28008	0.0205	-0.016
Mof_H 	H 	0.7496	0.2793	0.0352	0.028
Mof_C 	C 	0.78431	0.80217	0.52187	-0.086
Mof_H 	H 	0.7852	0.8151	0.5369	0.059
Mof_C 	C 	0.76294	0.78008	0.5205	-0.016
Mof_H 	H 	0.7496	0.7793	0.5352	0.029
Mof_C 	C 	0.28431	0.30217	0.52187	-0.085
Mof_H 	H 	0.2852	0.3151	0.5369	0.059
Mof_C 	C 	0.26294	0.28008	0.5205	-0.016
Mof_H 	H 	0.2496	0.2793	0.5352	0.028
Mof_C 	C 	0.28431	0.80217	0.02187	-0.085
Mof_H 	H 	0.2852	0.8151	0.0369	0.059
Mof_C 	C 	0.26294	0.78008	0.0205	-0.016
Mof_H 	H 	0.2496	0.7793	0.0352	0.028
Mof_C 	C 	0.78431	0.69783	0.97813	-0.084
Mof_H 	H 	0.7852	0.6849	0.9631	0.059
Mof_C 	C 	0.76294	0.71992	0.9795	-0.015
Mof_H 	H 	0.7496	0.7207	0.9648	0.029
Mof_C 	C 	0.78431	0.19783	0.47813	-0.085
Mof_H 	H 	0.7852	0.1849	0.4631	0.059
Mof_C 	C 	0.76294	0.21992	0.4795	-0.016
Mof_H 	H 	0.7496	0.2207	0.4648	0.028
Mof_C 	C 	0.28431	0.69783	0.47813	-0.085
Mof_H 	H 	0.2852	0.6849	0.4631	0.059
Mof_C 	C 	0.26294	0.71992	0.4795	-0.016
Mof_H 	H 	0.2496	0.7207	0.4648	0.028
Mof_C 	C 	0.28431	0.19783	0.97813	-0.084
Mof_H 	H 	0.2852	0.1849	0.9631	0.059
Mof_C 	C 	0.26294	0.21992	0.9795	-0.015
Mof_H 	H 	0.2496	0.2207	0.9648	0.028
Mof_C 	C 	0.02187	0.21569	0.69783	-0.085
Mof_H 	H 	0.0369	0.2148	0.6849	0.059
Mof_C 	C 	0.0205	0.23706	0.71992	-0.016
Mof_H 	H 	0.0352	0.2504	0.7207	0.028
Mof_C 	C 	0.02187	0.71569	0.19783	-0.085
Mof_H 	H 	0.0369	0.7148	0.1849	0.059
Mof_C 	C 	0.0205	0.73706	0.21992	-0.016
Mof_H 	H 	0.0352	0.7504	0.2207	0.028
Mof_C 	C 	0.52187	0.21569	0.19783	-0.085
Mof_H 	H 	0.5369	0.2148	0.1849	0.059
Mof_C 	C 	0.5205	0.23706	0.21992	-0.016
Mof_H 	H 	0.5352	0.2504	0.2207	0.028
Mof_C 	C 	0.52187	0.71569	0.69783	-0.085
Mof_H 	H 	0.5369	0.7148	0.6849	0.059
Mof_C 	C 	0.5205	0.73706	0.71992	-0.016
Mof_H 	H 	0.5352	0.7504	0.7207	0.029
Mof_C 	C 	0.97813	0.21569	0.30217	-0.084
Mof_H 	H 	0.9631	0.2148	0.3151	0.059
Mof_C 	C 	0.9795	0.23706	0.28008	-0.015
Mof_H 	H 	0.9648	0.2504	0.2793	0.028
Mof_C 	C 	0.97813	0.71569	0.80217	-0.084
Mof_H 	H 	0.9631	0.7148	0.8151	0.059
Mof_C 	C 	0.9795	0.73706	0.78008	-0.015
Mof_H 	H 	0.9648	0.7504	0.7793	0.029
Mof_C 	C 	0.47813	0.21569	0.80217	-0.085
Mof_H 	H 	0.4631	0.2148	0.8151	0.059
Mof_C 	C 	0.4795	0.23706	0.78008	-0.016
Mof_H 	H 	0.4648	0.2504	0.7793	0.029
Mof_C 	C 	0.47813	0.71569	0.30217	-0.085
Mof_H 	H 	0.4631	0.7148	0.3151	0.059
Mof_C 	C 	0.4795	0.73706	0.28008	-0.016
Mof_H 	H 	0.4648	0.7504	0.2793	0.029
Mof_C 	C 	0.02187	0.78431	0.30217	-0.085
Mof_H 	H 	0.0369	0.7852	0.3151	0.059
Mof_C 	C 	0.0205	0.76294	0.28008	-0.016
Mof_H 	H 	0.0352	0.7496	0.2793	0.028
Mof_C 	C 	0.02187	0.28431	0.80217	-0.085
Mof_H 	H 	0.0369	0.2852	0.8151	0.059
Mof_C 	C 	0.0205	0.26294	0.78008	-0.016
Mof_H 	H 	0.0352	0.2496	0.7793	0.028
Mof_C 	C 	0.52187	0.78431	0.80217	-0.086
Mof_H 	H 	0.5369	0.7852	0.8151	0.059
Mof_C 	C 	0.5205	0.76294	0.78008	-0.016
Mof_H 	H 	0.5352	0.7496	0.7793	0.029
Mof_C 	C 	0.52187	0.28431	0.30217	-0.085
Mof_H 	H 	0.5369	0.2852	0.3151	0.059
Mof_C 	C 	0.5205	0.26294	0.28008	-0.016
Mof_H 	H 	0.5352	0.2496	0.2793	0.028
Mof_C 	C 	0.97813	0.78431	0.69783	-0.084
Mof_H 	H 	0.9631	0.7852	0.6849	0.059
Mof_C 	C 	0.9795	0.76294	0.71992	-0.015
Mof_H 	H 	0.9648	0.7496	0.7207	0.029
Mof_C 	C 	0.97813	0.28431	0.19783	-0.084
Mof_H 	H 	0.9631	0.2852	0.1849	0.059
Mof_C 	C 	0.9795	0.26294	0.21992	-0.015
Mof_H 	H 	0.9648	0.2496	0.2207	0.028
Mof_C 	C 	0.47813	0.78431	0.19783	-0.085
Mof_H 	H 	0.4631	0.7852	0.1849	0.059
Mof_C 	C 	0.4795	0.76294	0.21992	-0.016
Mof_H 	H 	0.4648	0.7496	0.2207	0.028
Mof_C 	C 	0.47813	0.28431	0.69783	-0.085
Mof_H 	H 	0.4631	0.2852	0.6849	0.059
Mof_C 	C 	0.4795	0.26294	0.71992	-0.016
Mof_H 	H 	0.4648	0.2496	0.7207	0.028
Mof_C 	C 	0.02187	0.69783	0.78431	-0.085
Mof_H 	H 	0.0369	0.6849	0.7852	0.059
Mof_C 	C 	0.0205	0.71992	0.76294	-0.016
Mof_H 	H 	0.0352	0.7207	0.7496	0.028
Mof_C 	C 	0.02187	0.19783	0.28431	-0.085
Mof_H 	H 	0.0369	0.1849	0.2852	0.059
Mof_C 	C 	0.0205	0.21992	0.26294	-0.016
Mof_H 	H 	0.0352	0.2207	0.2496	0.028
Mof_C 	C 	0.52187	0.69783	0.28431	-0.085
Mof_H 	H 	0.5369	0.6849	0.2852	0.059
Mof_C 	C 	0.5205	0.71992	0.26294	-0.016
Mof_H 	H 	0.5352	0.7207	0.2496	0.028
Mof_C 	C 	0.52187	0.19783	0.78431	-0.085
Mof_H 	H 	0.5369	0.1849	0.7852	0.059
Mof_C 	C 	0.5205	0.21992	0.76294	-0.016
Mof_H 	H 	0.5352	0.2207	0.7496	0.028
Mof_C 	C 	0.97813	0.30217	0.78431	-0.084
Mof_H 	H 	0.9631	0.3151	0.7852	0.059
Mof_C 	C 	0.9795	0.28008	0.76294	-0.015
Mof_H 	H 	0.9648	0.2793	0.7496	0.028
Mof_C 	C 	0.97813	0.80217	0.28431	-0.084
Mof_H 	H 	0.9631	0.8151	0.2852	0.059
Mof_C 	C 	0.9795	0.78008	0.26294	-0.015
Mof_H 	H 	0.9648	0.7793	0.2496	0.029
Mof_C 	C 	0.47813	0.30217	0.28431	-0.085
Mof_H 	H 	0.4631	0.3151	0.2852	0.059
Mof_C 	C 	0.4795	0.28008	0.26294	-0.016
Mof_H 	H 	0.4648	0.2793	0.2496	0.028
Mof_C 	C 	0.47813	0.80217	0.78431	-0.086
Mof_H 	H 	0.4631	0.8151	0.7852	0.059
Mof_C 	C 	0.4795	0.78008	0.76294	-0.016
Mof_H 	H 	0.4648	0.7793	0.7496	0.029
Mof_C 	C 	0.02187	0.30217	0.21569	-0.085
Mof_H 	H 	0.0369	0.3151	0.2148	0.059
Mof_C 	C 	0.0205	0.28008	0.23706	-0.016
Mof_H 	H 	0.0352	0.2793	0.2504	0.028
Mof_C 	C 	0.02187	0.80217	0.71569	-0.085
Mof_H 	H 	0.0369	0.8151	0.7148	0.059
Mof_C 	C 	0.0205	0.78008	0.73706	-0.016
Mof_H 	H 	0.0352	0.7793	0.7504	0.029
Mof_C 	C 	0.52187	0.30217	0.71569	-0.085
Mof_H 	H 	0.5369	0.3151	0.7148	0.059
Mof_C 	C 	0.5205	0.28008	0.73706	-0.016
Mof_H 	H 	0.5352	0.2793	0.7504	0.029
Mof_C 	C 	0.52187	0.80217	0.21569	-0.085
Mof_H 	H 	0.5369	0.8151	0.2148	0.059
Mof_C 	C 	0.5205	0.78008	0.23706	-0.016
Mof_H 	H 	0.5352	0.7793	0.2504	0.029
Mof_C 	C 	0.97813	0.69783	0.21569	-0.084
Mof_H 	H 	0.9631	0.6849	0.2148	0.059
Mof_C 	C 	0.9795	0.71992	0.23706	-0.015
Mof_H 	H 	0.9648	0.7207	0.2504	0.028
Mof_C 	C 	0.97813	0.19783	0.71569	-0.084
Mof_H 	H 	0.9631	0.1849	0.7148	0.059
Mof_C 	C 	0.9795	0.21992	0.73706	-0.015
Mof_H 	H 	0.9648	0.2207	0.7504	0.029
Mof_C 	C 	0.47813	0.69783	0.71569	-0.085
Mof_H 	H 	0.4631	0.6849	0.7148	0.059
Mof_C 	C 	0.4795	0.71992	0.73706	-0.016
Mof_H 	H 	0.4648	0.7207	0.7504	0.029
Mof_C 	C 	0.47813	0.19783	0.21569	-0.085
Mof_H 	H 	0.4631	0.1849	0.2148	0.059
Mof_C 	C 	0.4795	0.21992	0.23706	-0.016
Mof_H 	H 	0.4648	0.2207	0.2504	0.028
Mof_C 	C 	0.69783	0.21569	0.97813	-0.084
Mof_H 	H 	0.6849	0.2148	0.9631	0.059
Mof_C 	C 	0.71992	0.23706	0.9795	-0.015
Mof_H 	H 	0.7207	0.2504	0.9648	0.028
Mof_C 	C 	0.69783	0.71569	0.47813	-0.085
Mof_H 	H 	0.6849	0.7148	0.4631	0.059
Mof_C 	C 	0.71992	0.73706	0.4795	-0.016
Mof_H 	H 	0.7207	0.7504	0.4648	0.029
Mof_C 	C 	0.19783	0.21569	0.47813	-0.085
Mof_H 	H 	0.1849	0.2148	0.4631	0.059
Mof_C 	C 	0.21992	0.23706	0.4795	-0.016
Mof_H 	H 	0.2207	0.2504	0.4648	0.028
Mof_C 	C 	0.19783	0.71569	0.97813	-0.084
Mof_H 	H 	0.1849	0.7148	0.9631	0.059
Mof_C 	C 	0.21992	0.73706	0.9795	-0.015
Mof_H 	H 	0.2207	0.7504	0.9648	0.029
Mof_C 	C 	0.30217	0.21569	0.02187	-0.085
Mof_H 	H 	0.3151	0.2148	0.0369	0.059
Mof_C 	C 	0.28008	0.23706	0.0205	-0.016
Mof_H 	H 	0.2793	0.2504	0.0352	0.028
Mof_C 	C 	0.30217	0.71569	0.52187	-0.085
Mof_H 	H 	0.3151	0.7148	0.5369	0.059
Mof_C 	C 	0.28008	0.73706	0.5205	-0.016
Mof_H 	H 	0.2793	0.7504	0.5352	0.029
Mof_C 	C 	0.80217	0.21569	0.52187	-0.085
Mof_H 	H 	0.8151	0.2148	0.5369	0.059
Mof_C 	C 	0.78008	0.23706	0.5205	-0.016
Mof_H 	H 	0.7793	0.2504	0.5352	0.029
Mof_C 	C 	0.80217	0.71569	0.02187	-0.085
Mof_H 	H 	0.8151	0.7148	0.0369	0.059
Mof_C 	C 	0.78008	0.73706	0.0205	-0.016
Mof_H 	H 	0.7793	0.7504	0.0352	0.029
Mof_C 	C 	0.30217	0.78431	0.97813	-0.084
Mof_H 	H 	0.3151	0.7852	0.9631	0.059
Mof_C 	C 	0.28008	0.76294	0.9795	-0.015
Mof_H 	H 	0.2793	0.7496	0.9648	0.028
Mof_C 	C 	0.30217	0.28431	0.47813	-0.085
Mof_H 	H 	0.3151	0.2852	0.4631	0.059
Mof_C 	C 	0.28008	0.26294	0.4795	-0.016
Mof_H 	H 	0.2793	0.2496	0.4648	0.028
Mof_C 	C 	0.80217	0.78431	0.47813	-0.086
Mof_H 	H 	0.8151	0.7852	0.4631	0.059
Mof_C 	C 	0.78008	0.76294	0.4795	-0.016
Mof_H 	H 	0.7793	0.7496	0.4648	0.029
Mof_C 	C 	0.80217	0.28431	0.97813	-0.084
Mof_H 	H 	0.8151	0.2852	0.9631	0.059
Mof_C 	C 	0.78008	0.26294	0.9795	-0.015
Mof_H 	H 	0.7793	0.2496	0.9648	0.029
Mof_C 	C 	0.69783	0.78431	0.02187	-0.085
Mof_H 	H 	0.6849	0.7852	0.0369	0.059
Mof_C 	C 	0.71992	0.76294	0.0205	-0.016
Mof_H 	H 	0.7207	0.7496	0.0352	0.028
Mof_C 	C 	0.69783	0.28431	0.52187	-0.085
Mof_H 	H 	0.6849	0.2852	0.5369	0.059
Mof_C 	C 	0.71992	0.26294	0.5205	-0.016
Mof_H 	H 	0.7207	0.2496	0.5352	0.028
Mof_C 	C 	0.19783	0.78431	0.52187	-0.085
Mof_H 	H 	0.1849	0.7852	0.5369	0.059
Mof_C 	C 	0.21992	0.76294	0.5205	-0.016
Mof_H 	H 	0.2207	0.7496	0.5352	0.028
Mof_C 	C 	0.19783	0.28431	0.02187	-0.085
Mof_H 	H 	0.1849	0.2852	0.0369	0.059
Mof_C 	C 	0.21992	0.26294	0.0205	-0.016
Mof_H 	H 	0.2207	0.2496	0.0352	0.028
Mof_C 	C 	0.21569	0.02187	0.30217	-0.085
Mof_H 	H 	0.2148	0.0369	0.3151	0.059
Mof_C 	C 	0.23706	0.0205	0.28008	-0.016
Mof_H 	H 	0.2504	0.0352	0.2793	0.028
Mof_C 	C 	0.21569	0.52187	0.80217	-0.085
Mof_H 	H 	0.2148	0.5369	0.8151	0.059
Mof_C 	C 	0.23706	0.5205	0.78008	-0.016
Mof_H 	H 	0.2504	0.5352	0.7793	0.029
Mof_C 	C 	0.71569	0.02187	0.80217	-0.085
Mof_H 	H 	0.7148	0.0369	0.8151	0.059
Mof_C 	C 	0.73706	0.0205	0.78008	-0.016
Mof_H 	H 	0.7504	0.0352	0.7793	0.029
Mof_C 	C 	0.71569	0.52187	0.30217	-0.085
Mof_H 	H 	0.7148	0.5369	0.3151	0.059
Mof_C 	C 	0.73706	0.5205	0.28008	-0.016
Mof_H 	H 	0.7504	0.5352	0.2793	0.029
Mof_C 	C 	0.21569	0.97813	0.69783	-0.084
Mof_H 	H 	0.2148	0.9631	0.6849	0.059
Mof_C 	C 	0.23706	0.9795	0.71992	-0.015
Mof_H 	H 	0.2504	0.9648	0.7207	0.028
Mof_C 	C 	0.21569	0.47813	0.19783	-0.085
Mof_H 	H 	0.2148	0.4631	0.1849	0.059
Mof_C 	C 	0.23706	0.4795	0.21992	-0.016
Mof_H 	H 	0.2504	0.4648	0.2207	0.028
Mof_C 	C 	0.71569	0.97813	0.19783	-0.084
Mof_H 	H 	0.7148	0.9631	0.1849	0.059
Mof_C 	C 	0.73706	0.9795	0.21992	-0.015
Mof_H 	H 	0.7504	0.9648	0.2207	0.029
Mof_C 	C 	0.71569	0.47813	0.69783	-0.085
Mof_H 	H 	0.7148	0.4631	0.6849	0.059
Mof_C 	C 	0.73706	0.4795	0.71992	-0.016
Mof_H 	H 	0.7504	0.4648	0.7207	0.029
Mof_C 	C 	0.78431	0.02187	0.69783	-0.085
Mof_H 	H 	0.7852	0.0369	0.6849	0.059
Mof_C 	C 	0.76294	0.0205	0.71992	-0.016
Mof_H 	H 	0.7496	0.0352	0.7207	0.028
Mof_C 	C 	0.78431	0.52187	0.19783	-0.085
Mof_H 	H 	0.7852	0.5369	0.1849	0.059
Mof_C 	C 	0.76294	0.5205	0.21992	-0.016
Mof_H 	H 	0.7496	0.5352	0.2207	0.028
Mof_C 	C 	0.28431	0.02187	0.19783	-0.085
Mof_H 	H 	0.2852	0.0369	0.1849	0.059
Mof_C 	C 	0.26294	0.0205	0.21992	-0.016
Mof_H 	H 	0.2496	0.0352	0.2207	0.028
Mof_C 	C 	0.28431	0.52187	0.69783	-0.085
Mof_H 	H 	0.2852	0.5369	0.6849	0.059
Mof_C 	C 	0.26294	0.5205	0.71992	-0.016
Mof_H 	H 	0.2496	0.5352	0.7207	0.028
Mof_C 	C 	0.78431	0.97813	0.30217	-0.084
Mof_H 	H 	0.7852	0.9631	0.3151	0.059
Mof_C 	C 	0.76294	0.9795	0.28008	-0.015
Mof_H 	H 	0.7496	0.9648	0.2793	0.028
Mof_C 	C 	0.78431	0.47813	0.80217	-0.086
Mof_H 	H 	0.7852	0.4631	0.8151	0.059
Mof_C 	C 	0.76294	0.4795	0.78008	-0.016
Mof_H 	H 	0.7496	0.4648	0.7793	0.029
Mof_C 	C 	0.28431	0.97813	0.80217	-0.084
Mof_H 	H 	0.2852	0.9631	0.8151	0.059
Mof_C 	C 	0.26294	0.9795	0.78008	-0.015
Mof_H 	H 	0.2496	0.9648	0.7793	0.029
Mof_C 	C 	0.28431	0.47813	0.30217	-0.085
Mof_H 	H 	0.2852	0.4631	0.3151	0.059
Mof_C 	C 	0.26294	0.4795	0.28008	-0.016
Mof_H 	H 	0.2496	0.4648	0.2793	0.028
Mof_Zn	Zn	0.5	-7.87763e-33	0.8537	1.196
Mof_Zn	Zn	0.5	-7.87763e-33	0.7903	1.199
Mof_Zn	Zn	0.5	0.5	0.3537	1.197
Mof_Zn	Zn	0.5	0.5	0.2903	1.199
Mof_Zn	Zn	0.5	1.96941e-33	0.1463	1.196
Mof_Zn	Zn	0.5	0	0.2097	1.199
Mof_Zn	Zn	0.5	0.5	0.6463	1.197
Mof_Zn	Zn	0.5	0.5	0.7097	1.199
Mof_Zn	Zn	0.8537	0.5	-0	1.196
Mof_Zn	Zn	0.7903	0.5	-0	1.199
Mof_Zn	Zn	0.3537	0.5	0.5	1.197
Mof_Zn	Zn	0.2903	0.5	0.5	1.199
Mof_Zn	Zn	0.1463	0.5	-0	1.196
Mof_Zn	Zn	0.2097	0.5	-0	1.199
Mof_Zn	Zn	0.6463	0.5	0.5	1.197
Mof_Zn	Zn	0.7097	0.5	0.5	1.199
Mof_Zn	Zn	-1.38806e-32	0.8537	0.5	1.196
Mof_Zn	Zn	-6.00293e-33	0.7903	0.5	1.199
Mof_Zn	Zn	-0	0.3537	-0	1.196
Mof_Zn	Zn	-3.93882e-33	0.2903	-0	1.198
Mof_Zn	Zn	1.8747e-33	0.1463	0.5	1.196
Mof_Zn	Zn	-6.00293e-33	0.2097	0.5	1.199
Mof_Zn	Zn	-0	0.6463	-0	1.196
Mof_Zn	Zn	-0	0.7097	-0	1.198
Mof_Zn	Zn	4.48735e-33	0.5	0.1463	1.196
Mof_Zn	Zn	-5.12198e-33	0.5	0.2097	1.199
Mof_Zn	Zn	2.42324e-33	0	0.6463	1.196
Mof_Zn	Zn	2.66095e-33	0	0.7097	1.198
Mof_Zn	Zn	-2.0432e-32	0.5	0.8537	1.196
Mof_Zn	Zn	-1.27921e-32	0.5	0.7903	1.199
Mof_Zn	Zn	1.32616e-33	0	0.3537	1.196
Mof_Zn	Zn	-2.85037e-33	-3.93882e-33	0.2903	1.198
Mof_Zn	Zn	0.5	0.8537	-0	1.196
Mof_Zn	Zn	0.5	0.7903	-0	1.199
Mof_Zn	Zn	0.5	0.3537	0.5	1.197
Mof_Zn	Zn	0.5	0.2903	0.5	1.199
Mof_Zn	Zn	0.5	0.1463	-0	1.196
Mof_Zn	Zn	0.5	0.2097	-0	1.199
Mof_Zn	Zn	0.5	0.6463	0.5	1.197
Mof_Zn	Zn	0.5	0.7097	0.5	1.199
Mof_Zn	Zn	0.8537	0	0.5	1.196
Mof_Zn	Zn	0.7903	0	0.5	1.199
Mof_Zn	Zn	0.3537	0	-0	1.196
Mof_Zn	Zn	0.2903	0	-0	1.198
Mof_Zn	Zn	0.1463	0	0.5	1.196
Mof_Zn	Zn	0.2097	0	0.5	1.199
Mof_Zn	Zn	0.6463	0	-0	1.196
Mof_Zn	Zn	0.7097	0	-0	1.198
Mof_O 	O 	0.45731	0	0.84603	-0.482
Mof_O 	O 	0.45752	0	0.79821	-0.487
Mof_C 	C 	0.4453	-7.87763e-33	0.8219	0.406
Mof_C 	C 	0.4131	0	0.8218	-0.125
Mof_C 	C 	0.3981	-7.87763e-33	0.8476	0.009
Mof_H 	H 	0.4077	0	0.8649	0.038
Mof_C 	C 	0.3687	-7.87763e-33	0.8466	-0.035
Mof_C 	C 	0.3543	-7.87763e-33	0.8199	0.11
Mof_C 	C 	0.3692	-7.87763e-33	0.7943	-0.162
Mof_H 	H 	0.3597	0	0.7768	0.085
Mof_C 	C 	0.3982	7.87763e-33	0.7958	0.067
Mof_H 	H 	0.4086	0	0.7789	0.015
Mof_O 	O 	0.45731	0.5	0.34603	-0.482
Mof_O 	O 	0.45752	0.5	0.29821	-0.487
Mof_C 	C 	0.4453	0.5	0.3219	0.406
Mof_C 	C 	0.4131	0.5	0.3218	-0.125
Mof_C 	C 	0.3981	0.5	0.3476	0.009
Mof_H 	H 	0.4077	0.5	0.3649	0.038
Mof_C 	C 	0.3687	0.5	0.3466	-0.034
Mof_C 	C 	0.3543	0.5	0.3199	0.11
Mof_C 	C 	0.3692	0.5	0.2943	-0.162
Mof_H 	H 	0.3597	0.5	0.2768	0.086
Mof_C 	C 	0.3982	0.5	0.2958	0.068
Mof_H 	H 	0.4086	0.5	0.2789	0.015
Mof_O 	O 	0.95731	-3.93882e-33	0.34603	-0.481
Mof_O 	O 	0.95752	0	0.29821	-0.486
Mof_C 	C 	0.9453	-3.93882e-33	0.3219	0.406
Mof_C 	C 	0.9131	-3.93882e-33	0.3218	-0.125
Mof_C 	C 	0.8981	0	0.3476	0.009
Mof_H 	H 	0.9077	0	0.3649	0.038
Mof_C 	C 	0.8687	0	0.3466	-0.034
Mof_C 	C 	0.8543	-3.93882e-33	0.3199	0.109
Mof_C 	C 	0.8692	0	0.2943	-0.162
Mof_H 	H 	0.8597	1.96941e-33	0.2768	0.085
Mof_C 	C 	0.8982	0	0.2958	0.067
Mof_H 	H 	0.9086	0	0.2789	0.016
Mof_O 	O 	0.95731	0.5	0.84603	-0.48
Mof_O 	O 	0.95752	0.5	0.79821	-0.485
Mof_C 	C 	0.9453	0.5	0.8219	0.406
Mof_C 	C 	0.9131	0.5	0.8218	-0.125
Mof_C 	C 	0.8981	0.5	0.8476	0.009
Mof_H 	H 	0.9077	0.5	0.8649	0.039
Mof_C 	C 	0.8687	0.5	0.8466	-0.034
Mof_C 	C 	0.8543	0.5	0.8199	0.11
Mof_C 	C 	0.8692	0.5	0.7943	-0.162
Mof_H 	H 	0.8597	0.5	0.7768	0.086
Mof_C 	C 	0.8982	0.5	0.7958	0.067
Mof_H 	H 	0.9086	0.5	0.7789	0.016
Mof_O 	O 	0.54269	0	0.84603	-0.482
Mof_O 	O 	0.54248	0	0.79821	-0.487
Mof_C 	C 	0.5547	-7.87763e-33	0.8219	0.406
Mof_C 	C 	0.5869	0	0.8218	-0.125
Mof_C 	C 	0.6019	-7.87763e-33	0.8476	0.009
Mof_H 	H 	0.5923	0	0.8649	0.038
Mof_C 	C 	0.6313	-7.87763e-33	0.8466	-0.035
Mof_C 	C 	0.6457	-7.87763e-33	0.8199	0.11
Mof_C 	C 	0.6308	-7.87763e-33	0.7943	-0.162
Mof_H 	H 	0.6403	0	0.7768	0.085
Mof_C 	C 	0.6018	7.87763e-33	0.7958	0.067
Mof_H 	H 	0.5914	0	0.7789	0.015
Mof_O 	O 	0.54269	0.5	0.34603	-0.482
Mof_O 	O 	0.54248	0.5	0.29821	-0.487
Mof_C 	C 	0.5547	0.5	0.3219	0.406
Mof_C 	C 	0.5869	0.5	0.3218	-0.125
Mof_C 	C 	0.6019	0.5	0.3476	0.009
Mof_H 	H 	0.5923	0.5	0.3649	0.038
Mof_C 	C 	0.6313	0.5	0.3466	-0.034
Mof_C 	C 	0.6457	0.5	0.3199	0.11
Mof_C 	C 	0.6308	0.5	0.2943	-0.162
Mof_H 	H 	0.6403	0.5	0.2768	0.086
Mof_C 	C 	0.6018	0.5	0.2958	0.068
Mof_H 	H 	0.5914	0.5	0.2789	0.015
Mof_O 	O 	0.04269	-3.93882e-33	0.34603	-0.482
Mof_O 	O 	0.04248	0	0.29821	-0.487
Mof_C 	C 	0.0547	-3.93882e-33	0.3219	0.406
Mof_C 	C 	0.0869	-3.93882e-33	0.3218	-0.126
Mof_C 	C 	0.1019	0	0.3476	0.009
Mof_H 	H 	0.0923	0	0.3649	0.038
Mof_C 	C 	0.1313	0	0.3466	-0.035
Mof_C 	C 	0.1457	-3.93882e-33	0.3199	0.11
Mof_C 	C 	0.1308	0	0.2943	-0.162
Mof_H 	H 	0.1403	1.96941e-33	0.2768	0.085
Mof_C 	C 	0.1018	0	0.2958	0.067
Mof_H 	H 	0.0914	0	0.2789	0.015
Mof_O 	O 	0.04269	0.5	0.84603	-0.482
Mof_O 	O 	0.04248	0.5	0.79821	-0.487
Mof_C 	C 	0.0547	0.5	0.8219	0.406
Mof_C 	C 	0.0869	0.5	0.8218	-0.125
Mof_C 	C 	0.1019	0.5	0.8476	0.009
Mof_H 	H 	0.0923	0.5	0.8649	0.038
Mof_C 	C 	0.1313	0.5	0.8466	-0.034
Mof_C 	C 	0.1457	0.5	0.8199	0.11
Mof_C 	C 	0.1308	0.5	0.7943	-0.162
Mof_H 	H 	0.1403	0.5	0.7768	0.085
Mof_C 	C 	0.1018	0.5	0.7958	0.068
Mof_H 	H 	0.0914	0.5	0.7789	0.015
Mof_O 	O 	0.54269	0	0.15397	-0.482
Mof_O 	O 	0.54248	1.96941e-33	0.20179	-0.487
Mof_C 	C 	0.5547	0	0.1781	0.406
Mof_C 	C 	0.5869	0	0.1782	-0.126
Mof_C 	C 	0.6019	-1.96941e-33	0.1524	0.009
Mof_H 	H 	0.5923	0	0.1351	0.038
Mof_C 	C 	0.6313	0	0.1534	-0.035
Mof_C 	C 	0.6457	-1.96941e-33	0.1801	0.11
Mof_C 	C 	0.6308	0	0.2057	-0.162
Mof_H 	H 	0.6403	-1.96941e-33	0.2232	0.085
Mof_C 	C 	0.6018	0	0.2042	0.067
Mof_H 	H 	0.5914	-1.96941e-33	0.2211	0.015
Mof_O 	O 	0.54269	0.5	0.65397	-0.482
Mof_O 	O 	0.54248	0.5	0.70179	-0.486
Mof_C 	C 	0.5547	0.5	0.6781	0.406
Mof_C 	C 	0.5869	0.5	0.6782	-0.125
Mof_C 	C 	0.6019	0.5	0.6524	0.009
Mof_H 	H 	0.5923	0.5	0.6351	0.038
Mof_C 	C 	0.6313	0.5	0.6534	-0.034
Mof_C 	C 	0.6457	0.5	0.6801	0.11
Mof_C 	C 	0.6308	0.5	0.7057	-0.162
Mof_H 	H 	0.6403	0.5	0.7232	0.086
Mof_C 	C 	0.6018	0.5	0.7042	0.068
Mof_H 	H 	0.5914	0.5	0.7211	0.016
Mof_O 	O 	0.04269	0	0.65397	-0.482
Mof_O 	O 	0.04248	0	0.70179	-0.487
Mof_C 	C 	0.0547	0	0.6781	0.406
Mof_C 	C 	0.0869	-7.87763e-33	0.6782	-0.126
Mof_C 	C 	0.1019	0	0.6524	0.009
Mof_H 	H 	0.0923	0	0.6351	0.038
Mof_C 	C 	0.1313	0	0.6534	-0.035
Mof_C 	C 	0.1457	0	0.6801	0.11
Mof_C 	C 	0.1308	0	0.7057	-0.162
Mof_H 	H 	0.1403	7.87763e-33	0.7232	0.085
Mof_C 	C 	0.1018	0	0.7042	0.067
Mof_H 	H 	0.0914	7.87763e-33	0.7211	0.015
Mof_O 	O 	0.04269	0.5	0.15397	-0.482
Mof_O 	O 	0.04248	0.5	0.20179	-0.487
Mof_C 	C 	0.0547	0.5	0.1781	0.406
Mof_C 	C 	0.0869	0.5	0.1782	-0.125
Mof_C 	C 	0.1019	0.5	0.1524	0.009
Mof_H 	H 	0.0923	0.5	0.1351	0.038
Mof_C 	C 	0.1313	0.5	0.1534	-0.034
Mof_C 	C 	0.1457	0.5	0.1801	0.11
Mof_C 	C 	0.1308	0.5	0.2057	-0.162
Mof_H 	H 	0.1403	0.5	0.2232	0.086
Mof_C 	C 	0.1018	0.5	0.2042	0.068
Mof_H 	H 	0.0914	0.5	0.2211	0.015
Mof_O 	O 	0.45731	0	0.15397	-0.482
Mof_O 	O 	0.45752	1.96941e-33	0.20179	-0.487
Mof_C 	C 	0.4453	0	0.1781	0.406
Mof_C 	C 	0.4131	0	0.1782	-0.126
Mof_C 	C 	0.3981	-1.96941e-33	0.1524	0.009
Mof_H 	H 	0.4077	0	0.1351	0.038
Mof_C 	C 	0.3687	0	0.1534	-0.035
Mof_C 	C 	0.3543	-1.96941e-33	0.1801	0.11
Mof_C 	C 	0.3692	0	0.2057	-0.162
Mof_H 	H 	0.3597	-1.96941e-33	0.2232	0.085
Mof_C 	C 	0.3982	0	0.2042	0.067
Mof_H 	H 	0.4086	-1.96941e-33	0.2211	0.015
Mof_O 	O 	0.45731	0.5	0.65397	-0.482
Mof_O 	O 	0.45752	0.5	0.70179	-0.486
Mof_C 	C 	0.4453	0.5	0.6781	0.406
Mof_C 	C 	0.4131	0.5	0.6782	-0.125
Mof_C 	C 	0.3981	0.5	0.6524	0.009
Mof_H 	H 	0.4077	0.5	0.6351	0.038
Mof_C 	C 	0.3687	0.5	0.6534	-0.034
Mof_C 	C 	0.3543	0.5	0.6801	0.11
Mof_C 	C 	0.3692	0.5	0.7057	-0.162
Mof_H 	H 	0.3597	0.5	0.7232	0.086
Mof_C 	C 	0.3982	0.5	0.7042	0.068
Mof_H 	H 	0.4086	0.5	0.7211	0.016
Mof_O 	O 	0.95731	0	0.65397	-0.481
Mof_O 	O 	0.95752	0	0.70179	-0.486
Mof_C 	C 	0.9453	0	0.6781	0.406
Mof_C 	C 	0.9131	-7.87763e-33	0.6782	-0.125
Mof_C 	C 	0.8981	0	0.6524	0.009
Mof_H 	H 	0.9077	0	0.6351	0.038
Mof_C 	C 	0.8687	0	0.6534	-0.034
Mof_C 	C 	0.8543	0	0.6801	0.109
Mof_C 	C 	0.8692	0	0.7057	-0.162
Mof_H 	H 	0.8597	7.87763e-33	0.7232	0.085
Mof_C 	C 	0.8982	0	0.7042	0.067
Mof_H 	H 	0.9086	7.87763e-33	0.7211	0.016
Mof_O 	O 	0.95731	0.5	0.15397	-0.481
Mof_O 	O 	0.95752	0.5	0.20179	-0.485
Mof_C 	C 	0.9453	0.5	0.1781	0.406
Mof_C 	C 	0.9131	0.5	0.1782	-0.125
Mof_C 	C 	0.8981	0.5	0.1524	0.009
Mof_H 	H 	0.9077	0.5	0.1351	0.039
Mof_C 	C 	0.8687	0.5	0.1534	-0.034
Mof_C 	C 	0.8543	0.5	0.1801	0.11
Mof_C 	C 	0.8692	0.5	0.2057	-0.162
Mof_H 	H 	0.8597	0.5	0.2232	0.086
Mof_C 	C 	0.8982	0.5	0.2042	0.067
Mof_H 	H 	0.9086	0.5	0.2211	0.016
Mof_O 	O 	0.84603	0.45731	-0	-0.482
Mof_O 	O 	0.79821	0.45752	-0	-0.487
Mof_C 	C 	0.8219	0.4453	-0	0.406
Mof_C 	C 	0.8218	0.4131	-0	-0.125
Mof_C 	C 	0.8476	0.3981	-0	0.009
Mof_H 	H 	0.8649	0.4077	-0	0.038
Mof_C 	C 	0.8466	0.3687	-0	-0.035
Mof_C 	C 	0.8199	0.3543	-0	0.11
Mof_C 	C 	0.7943	0.3692	-0	-0.162
Mof_H 	H 	0.7768	0.3597	-0	0.085
Mof_C 	C 	0.7958	0.3982	-0	0.067
Mof_H 	H 	0.7789	0.4086	-0	0.015
Mof_O 	O 	0.84603	0.95731	0.5	-0.48
Mof_O 	O 	0.79821	0.95752	0.5	-0.485
Mof_C 	C 	0.8219	0.9453	0.5	0.406
Mof_C 	C 	0.8218	0.9131	0.5	-0.125
Mof_C 	C 	0.8476	0.8981	0.5	0.009
Mof_H 	H 	0.8649	0.9077	0.5	0.039
Mof_C 	C 	0.8466	0.8687	0.5	-0.034
Mof_C 	C 	0.8199	0.8543	0.5	0.11
Mof_C 	C 	0.7943	0.8692	0.5	-0.162
Mof_H 	H 	0.7768	0.8597	0.5	0.086
Mof_C 	C 	0.7958	0.8982	0.5	0.067
Mof_H 	H 	0.7789	0.9086	0.5	0.016
Mof_O 	O 	0.34603	0.45731	0.5	-0.482
Mof_O 	O 	0.29821	0.45752	0.5	-0.487
Mof_C 	C 	0.3219	0.4453	0.5	0.406
Mof_C 	C 	0.3218	0.4131	0.5	-0.125
Mof_C 	C 	0.3476	0.3981	0.5	0.009
Mof_H 	H 	0.3649	0.4077	0.5	0.038
Mof_C 	C 	0.3466	0.3687	0.5	-0.034
Mof_C 	C 	0.3199	0.3543	0.5	0.11
Mof_C 	C 	0.2943	0.3692	0.5	-0.162
Mof_H 	H 	0.2768	0.3597	0.5	0.086
Mof_C 	C 	0.2958	0.3982	0.5	0.068
Mof_H 	H 	0.2789	0.4086	0.5	0.015
Mof_O 	O 	0.34603	0.95731	-0	-0.481
Mof_O 	O 	0.29821	0.95752	-0	-0.486
Mof_C 	C 	0.3219	0.9453	-0	0.406
Mof_C 	C 	0.3218	0.9131	-0	-0.125
Mof_C 	C 	0.3476	0.8981	-0	0.009
Mof_H 	H 	0.3649	0.9077	-0	0.038
Mof_C 	C 	0.3466	0.8687	-0	-0.034
Mof_C 	C 	0.3199	0.8543	-0	0.109
Mof_C 	C 	0.2943	0.8692	-0	-0.162
Mof_H 	H 	0.2768	0.8597	-0	0.085
Mof_C 	C 	0.2958	0.8982	-0	0.067
Mof_H 	H 	0.2789	0.9086	-0	0.016
Mof_O 	O 	0.84603	0.54269	-0	-0.482
Mof_O 	O 	0.79821	0.54248	-0	-0.487
Mof_C 	C 	0.8219	0.5547	-0	0.406
Mof_C 	C 	0.8218	0.5869	-0	-0.125
Mof_C 	C 	0.8476	0.6019	-0	0.009
Mof_H 	H 	0.8649	0.5923	-0	0.038
Mof_C 	C 	0.8466	0.6313	-0	-0.035
Mof_C 	C 	0.8199	0.6457	-0	0.11
Mof_C 	C 	0.7943	0.6308	-0	-0.162
Mof_H 	H 	0.7768	0.6403	-0	0.085
Mof_C 	C 	0.7958	0.6018	-0	0.067
Mof_H 	H 	0.7789	0.5914	-0	0.015
Mof_O 	O 	0.84603	0.04269	0.5	-0.482
Mof_O 	O 	0.79821	0.04248	0.5	-0.487
Mof_C 	C 	0.8219	0.0547	0.5	0.406
Mof_C 	C 	0.8218	0.0869	0.5	-0.125
Mof_C 	C 	0.8476	0.1019	0.5	0.009
Mof_H 	H 	0.8649	0.0923	0.5	0.038
Mof_C 	C 	0.8466	0.1313	0.5	-0.034
Mof_C 	C 	0.8199	0.1457	0.5	0.11
Mof_C 	C 	0.7943	0.1308	0.5	-0.162
Mof_H 	H 	0.7768	0.1403	0.5	0.085
Mof_C 	C 	0.7958	0.1018	0.5	0.068
Mof_H 	H 	0.7789	0.0914	0.5	0.015
Mof_O 	O 	0.34603	0.54269	0.5	-0.482
Mof_O 	O 	0.29821	0.54248	0.5	-0.487
Mof_C 	C 	0.3219	0.5547	0.5	0.406
Mof_C 	C 	0.3218	0.5869	0.5	-0.125
Mof_C 	C 	0.3476	0.6019	0.5	0.009
Mof_H 	H 	0.3649	0.5923	0.5	0.038
Mof_C 	C 	0.3466	0.6313	0.5	-0.034
Mof_C 	C 	0.3199	0.6457	0.5	0.11
Mof_C 	C 	0.2943	0.6308	0.5	-0.162
Mof_H 	H 	0.2768	0.6403	0.5	0.086
Mof_C 	C 	0.2958	0.6018	0.5	0.068
Mof_H 	H 	0.2789	0.5914	0.5	0.015
Mof_O 	O 	0.34603	0.04269	-0	-0.482
Mof_O 	O 	0.29821	0.04248	-0	-0.487
Mof_C 	C 	0.3219	0.0547	-0	0.406
Mof_C 	C 	0.3218	0.0869	-0	-0.126
Mof_C 	C 	0.3476	0.1019	-0	0.009
Mof_H 	H 	0.3649	0.0923	-0	0.038
Mof_C 	C 	0.3466	0.1313	-0	-0.035
Mof_C 	C 	0.3199	0.1457	-0	0.11
Mof_C 	C 	0.2943	0.1308	-0	-0.162
Mof_H 	H 	0.2768	0.1403	-0	0.085
Mof_C 	C 	0.2958	0.1018	-0	0.067
Mof_H 	H 	0.2789	0.0914	-0	0.015
Mof_O 	O 	0.15397	0.54269	-0	-0.482
Mof_O 	O 	0.20179	0.54248	-0	-0.487
Mof_C 	C 	0.1781	0.5547	-0	0.406
Mof_C 	C 	0.1782	0.5869	-0	-0.126
Mof_C 	C 	0.1524	0.6019	-0	0.009
Mof_H 	H 	0.1351	0.5923	-0	0.038
Mof_C 	C 	0.1534	0.6313	-0	-0.035
Mof_C 	C 	0.1801	0.6457	-0	0.11
Mof_C 	C 	0.2057	0.6308	-0	-0.162
Mof_H 	H 	0.2232	0.6403	-0	0.085
Mof_C 	C 	0.2042	0.6018	-0	0.067
Mof_H 	H 	0.2211	0.5914	-0	0.015
Mof_O 	O 	0.15397	0.04269	0.5	-0.482
Mof_O 	O 	0.20179	0.04248	0.5	-0.487
Mof_C 	C 	0.1781	0.0547	0.5	0.406
Mof_C 	C 	0.1782	0.0869	0.5	-0.125
Mof_C 	C 	0.1524	0.1019	0.5	0.009
Mof_H 	H 	0.1351	0.0923	0.5	0.038
Mof_C 	C 	0.1534	0.1313	0.5	-0.034
Mof_C 	C 	0.1801	0.1457	0.5	0.11
Mof_C 	C 	0.2057	0.1308	0.5	-0.162
Mof_H 	H 	0.2232	0.1403	0.5	0.086
Mof_C 	C 	0.2042	0.1018	0.5	0.068
Mof_H 	H 	0.2211	0.0914	0.5	0.015
Mof_O 	O 	0.65397	0.54269	0.5	-0.482
Mof_O 	O 	0.70179	0.54248	0.5	-0.486
Mof_C 	C 	0.6781	0.5547	0.5	0.406
Mof_C 	C 	0.6782	0.5869	0.5	-0.125
Mof_C 	C 	0.6524	0.6019	0.5	0.009
Mof_H 	H 	0.6351	0.5923	0.5	0.038
Mof_C 	C 	0.6534	0.6313	0.5	-0.034
Mof_C 	C 	0.6801	0.6457	0.5	0.11
Mof_C 	C 	0.7057	0.6308	0.5	-0.162
Mof_H 	H 	0.7232	0.6403	0.5	0.086
Mof_C 	C 	0.7042	0.6018	0.5	0.068
Mof_H 	H 	0.7211	0.5914	0.5	0.016
Mof_O 	O 	0.65397	0.04269	-0	-0.482
Mof_O 	O 	0.70179	0.04248	-0	-0.487
Mof_C 	C 	0.6781	0.0547	-0	0.406
Mof_C 	C 	0.6782	0.0869	-0	-0.126
Mof_C 	C 	0.6524	0.1019	-0	0.009
Mof_H 	H 	0.6351	0.0923	-0	0.038
Mof_C 	C 	0.6534	0.1313	-0	-0.035
Mof_C 	C 	0.6801	0.1457	-0	0.11
Mof_C 	C 	0.7057	0.1308	-0	-0.162
Mof_H 	H 	0.7232	0.1403	-0	0.085
Mof_C 	C 	0.7042	0.1018	-0	0.067
Mof_H 	H 	0.7211	0.0914	-0	0.015
Mof_O 	O 	0.15397	0.45731	-0	-0.482
Mof_O 	O 	0.20179	0.45752	-0	-0.487
Mof_C 	C 	0.1781	0.4453	-0	0.406
Mof_C 	C 	0.1782	0.4131	-0	-0.126
Mof_C 	C 	0.1524	0.3981	-0	0.009
Mof_H 	H 	0.1351	0.4077	-0	0.038
Mof_C 	C 	0.1534	0.3687	-0	-0.035
Mof_C 	C 	0.1801	0.3543	-0	0.11
Mof_C 	C 	0.2057	0.3692	-0	-0.162
Mof_H 	H 	0.2232	0.3597	-0	0.085
Mof_C 	C 	0.2042	0.3982	-0	0.067
Mof_H 	H 	0.2211	0.4086	-0	0.015
Mof_O 	O 	0.15397	0.95731	0.5	-0.481
Mof_O 	O 	0.20179	0.95752	0.5	-0.485
Mof_C 	C 	0.1781	0.9453	0.5	0.406
Mof_C 	C 	0.1782	0.9131	0.5	-0.125
Mof_C 	C 	0.1524	0.8981	0.5	0.009
Mof_H 	H 	0.1351	0.9077	0.5	0.039
Mof_C 	C 	0.1534	0.8687	0.5	-0.034
Mof_C 	C 	0.1801	0.8543	0.5	0.11
Mof_C 	C 	0.2057	0.8692	0.5	-0.162
Mof_H 	H 	0.2232	0.8597	0.5	0.086
Mof_C 	C 	0.2042	0.8982	0.5	0.067
Mof_H 	H 	0.2211	0.9086	0.5	0.016
Mof_O 	O 	0.65397	0.45731	0.5	-0.482
Mof_O 	O 	0.70179	0.45752	0.5	-0.486
Mof_C 	C 	0.6781	0.4453	0.5	0.406
Mof_C 	C 	0.6782	0.4131	0.5	-0.125
Mof_C 	C 	0.6524	0.3981	0.5	0.009
Mof_H 	H 	0.6351	0.4077	0.5	0.038
Mof_C 	C 	0.6534	0.3687	0.5	-0.034
Mof_C 	C 	0.6801	0.3543	0.5	0.11
Mof_C 	C 	0.7057	0.3692	0.5	-0.162
Mof_H 	H 	0.7232	0.3597	0.5	0.086
Mof_C 	C 	0.7042	0.3982	0.5	0.068
Mof_H 	H 	0.7211	0.4086	0.5	0.016
Mof_O 	O 	0.65397	0.95731	-0	-0.481
Mof_O 	O 	0.70179	0.95752	-0	-0.486
Mof_C 	C 	0.6781	0.9453	-0	0.406
Mof_C 	C 	0.6782	0.9131	-0	-0.125
Mof_C 	C 	0.6524	0.8981	-0	0.009
Mof_H 	H 	0.6351	0.9077	-0	0.038
Mof_C 	C 	0.6534	0.8687	-0	-0.034
Mof_C 	C 	0.6801	0.8543	-0	0.109
Mof_C 	C 	0.7057	0.8692	-0	-0.162
Mof_H 	H 	0.7232	0.8597	-0	0.085
Mof_C 	C 	0.7042	0.8982	-0	0.067
Mof_H 	H 	0.7211	0.9086	-0	0.016
Mof_O 	O 	-2.22418e-33	0.84603	0.45731	-0.482
Mof_O 	O 	1.71543e-33	0.79821	0.45752	-0.487
Mof_C 	C 	9.54724e-33	0.8219	0.4453	0.406
Mof_C 	C 	-2.38994e-33	0.8218	0.4131	-0.125
Mof_C 	C 	-1.42626e-32	0.8476	0.3981	0.009
Mof_H 	H 	-2.41019e-33	0.8649	0.4077	0.038
Mof_C 	C 	-1.43729e-32	0.8466	0.3687	-0.035
Mof_C 	C 	5.26723e-33	0.8199	0.3543	0.11
Mof_C 	C 	1.38428e-33	0.7943	0.3692	-0.162
Mof_H 	H 	1.34866e-33	0.7768	0.3597	0.085
Mof_C 	C 	9.37064e-33	0.7958	0.3982	0.067
Mof_H 	H 	-2.40681e-33	0.7789	0.4086	0.015
Mof_O 	O 	-1.21659e-32	0.34603	0.95731	-0.481
Mof_O 	O 	-4.28751e-33	0.29821	0.95752	-0.486
Mof_C 	C 	-4.33333e-33	0.3219	0.9453	0.406
Mof_C 	C 	-4.45406e-33	0.3218	0.9131	-0.125
Mof_C 	C 	-1.23879e-32	0.3476	0.8981	0.009
Mof_H 	H 	3.40333e-33	0.3649	0.9077	0.038
Mof_C 	C 	-1.24982e-32	0.3466	0.8687	-0.034
Mof_C 	C 	-1.25522e-32	0.3199	0.8543	0.109
Mof_C 	C 	3.25898e-33	0.2943	0.8692	-0.162
Mof_H 	H 	3.22336e-33	0.2768	0.8597	0.085
Mof_C 	C 	-4.50992e-33	0.2958	0.8982	0.067
Mof_H 	H 	3.4067e-33	0.2789	0.9086	0.016
Mof_O 	O 	0.5	0.84603	0.95731	-0.48
Mof_O 	O 	0.5	0.79821	0.95752	-0.485
Mof_C 	C 	0.5	0.8219	0.9453	0.406
Mof_C 	C 	0.5	0.8218	0.9131	-0.125
Mof_C 	C 	0.5	0.8476	0.8981	0.009
Mof_H 	H 	0.5	0.8649	0.9077	0.039
Mof_C 	C 	0.5	0.8466	0.8687	-0.034
Mof_C 	C 	0.5	0.8199	0.8543	0.11
Mof_C 	C 	0.5	0.7943	0.8692	-0.162
Mof_H 	H 	0.5	0.7768	0.8597	0.086
Mof_C 	C 	0.5	0.7958	0.8982	0.067
Mof_H 	H 	0.5	0.7789	0.9086	0.016
Mof_O 	O 	0.5	0.34603	0.45731	-0.482
Mof_O 	O 	0.5	0.29821	0.45752	-0.487
Mof_C 	C 	0.5	0.3219	0.4453	0.406
Mof_C 	C 	0.5	0.3218	0.4131	-0.125
Mof_C 	C 	0.5	0.3476	0.3981	0.009
Mof_H 	H 	0.5	0.3649	0.4077	0.038
Mof_C 	C 	0.5	0.3466	0.3687	-0.034
Mof_C 	C 	0.5	0.3199	0.3543	0.11
Mof_C 	C 	0.5	0.2943	0.3692	-0.162
Mof_H 	H 	0.5	0.2768	0.3597	0.086
Mof_C 	C 	0.5	0.2958	0.3982	0.068
Mof_H 	H 	0.5	0.2789	0.4086	0.015
Mof_O 	O 	-9.78169e-33	0.84603	0.54269	-0.482
Mof_O 	O 	-9.78248e-33	0.79821	0.54248	-0.487
Mof_C 	C 	-1.85903e-33	0.8219	0.5547	0.406
Mof_C 	C 	-5.67711e-33	0.8218	0.5869	-0.125
Mof_C 	C 	-1.34985e-32	0.8476	0.6019	0.009
Mof_H 	H 	2.22077e-33	0.8649	0.5923	0.038
Mof_C 	C 	-1.33883e-32	0.8466	0.6313	-0.035
Mof_C 	C 	-5.45665e-33	0.8199	0.6457	0.11
Mof_C 	C 	2.36512e-33	0.7943	0.6308	-0.162
Mof_H 	H 	1.02784e-32	0.7768	0.6403	0.085
Mof_C 	C 	-5.62125e-33	0.7958	0.6018	0.067
Mof_H 	H 	2.21739e-33	0.7789	0.5914	0.015
Mof_O 	O 	-5.74816e-33	0.34603	0.04269	-0.482
Mof_O 	O 	1.14398e-33	0.29821	0.04248	-0.487
Mof_C 	C 	-4.22608e-33	0.3219	0.0547	0.406
Mof_C 	C 	-2.62829e-33	0.3218	0.0869	-0.126
Mof_C 	C 	-1.58734e-33	0.3476	0.1019	0.009
Mof_H 	H 	3.4607e-34	0.3649	0.0923	0.038
Mof_C 	C 	-1.47711e-33	0.3466	0.1313	-0.035
Mof_C 	C 	-3.39253e-33	0.3199	0.1457	0.11
Mof_C 	C 	4.42924e-33	0.2943	0.1308	-0.162
Mof_H 	H 	4.46486e-33	0.2768	0.1403	0.085
Mof_C 	C 	4.32051e-33	0.2958	0.1018	0.067
Mof_H 	H 	-3.59612e-33	0.2789	0.0914	0.015
Mof_O 	O 	0.5	0.84603	0.04269	-0.482
Mof_O 	O 	0.5	0.79821	0.04248	-0.487
Mof_C 	C 	0.5	0.8219	0.0547	0.406
Mof_C 	C 	0.5	0.8218	0.0869	-0.125
Mof_C 	C 	0.5	0.8476	0.1019	0.009
Mof_H 	H 	0.5	0.8649	0.0923	0.038
Mof_C 	C 	0.5	0.8466	0.1313	-0.034
Mof_C 	C 	0.5	0.8199	0.1457	0.11
Mof_C 	C 	0.5	0.7943	0.1308	-0.162
Mof_H 	H 	0.5	0.7768	0.1403	0.085
Mof_C 	C 	0.5	0.7958	0.1018	0.068
Mof_H 	H 	0.5	0.7789	0.0914	0.015
Mof_O 	O 	0.5	0.34603	0.54269	-0.482
Mof_O 	O 	0.5	0.29821	0.54248	-0.487
Mof_C 	C 	0.5	0.3219	0.5547	0.406
Mof_C 	C 	0.5	0.3218	0.5869	-0.125
Mof_C 	C 	0.5	0.3476	0.6019	0.009
Mof_H 	H 	0.5	0.3649	0.5923	0.038
Mof_C 	C 	0.5	0.3466	0.6313	-0.034
Mof_C 	C 	0.5	0.3199	0.6457	0.11
Mof_C 	C 	0.5	0.2943	0.6308	-0.162
Mof_H 	H 	0.5	0.2768	0.6403	0.086
Mof_C 	C 	0.5	0.2958	0.6018	0.068
Mof_H 	H 	0.5	0.2789	0.5914	0.015
Mof_O 	O 	-1.90406e-33	0.15397	0.54269	-0.482
Mof_O 	O 	2.03397e-33	0.20179	0.54248	-0.487
Mof_C 	C 	-1.85903e-33	0.1781	0.5547	0.406
Mof_C 	C 	-5.67711e-33	0.1782	0.5869	-0.126
Mof_C 	C 	2.25676e-33	0.1524	0.6019	0.009
Mof_H 	H 	2.22077e-33	0.1351	0.5923	0.038
Mof_C 	C 	-5.51064e-33	0.1534	0.6313	-0.035
Mof_C 	C 	-5.45665e-33	0.1801	0.6457	0.11
Mof_C 	C 	-5.51251e-33	0.2057	0.6308	-0.162
Mof_H 	H 	1.02784e-32	0.2232	0.6403	0.085
Mof_C 	C 	-5.62125e-33	0.2042	0.6018	0.067
Mof_H 	H 	-5.66024e-33	0.2211	0.5914	0.015
Mof_O 	O 	6.06829e-33	0.65397	0.04269	-0.482
Mof_O 	O 	1.14398e-33	0.70179	0.04248	-0.487
Mof_C 	C 	-4.22608e-33	0.6781	0.0547	0.406
Mof_C 	C 	-1.05059e-32	0.6782	0.0869	-0.126
Mof_C 	C 	-1.58734e-33	0.6524	0.1019	0.009
Mof_H 	H 	4.28489e-33	0.6351	0.0923	0.038
Mof_C 	C 	-5.41593e-33	0.6534	0.1313	-0.035
Mof_C 	C 	-3.39253e-33	0.6801	0.1457	0.11
Mof_C 	C 	-3.4484e-33	0.7057	0.1308	-0.162
Mof_H 	H 	4.46486e-33	0.7232	0.1403	0.085
Mof_C 	C 	-3.55713e-33	0.7042	0.1018	0.067
Mof_H 	H 	1.01897e-32	0.7211	0.0914	0.015
Mof_O 	O 	0.5	0.15397	0.04269	-0.482
Mof_O 	O 	0.5	0.20179	0.04248	-0.487
Mof_C 	C 	0.5	0.1781	0.0547	0.406
Mof_C 	C 	0.5	0.1782	0.0869	-0.125
Mof_C 	C 	0.5	0.1524	0.1019	0.009
Mof_H 	H 	0.5	0.1351	0.0923	0.038
Mof_C 	C 	0.5	0.1534	0.1313	-0.034
Mof_C 	C 	0.5	0.1801	0.1457	0.11
Mof_C 	C 	0.5	0.2057	0.1308	-0.162
Mof_H 	H 	0.5	0.2232	0.1403	0.086
Mof_C 	C 	0.5	0.2042	0.1018	0.068
Mof_H 	H 	0.5	0.2211	0.0914	0.015
Mof_O 	O 	0.5	0.65397	0.54269	-0.482
Mof_O 	O 	0.5	0.70179	0.54248	-0.486
Mof_C 	C 	0.5	0.6781	0.5547	0.406
Mof_C 	C 	0.5	0.6782	0.5869	-0.125
Mof_C 	C 	0.5	0.6524	0.6019	0.009
Mof_H 	H 	0.5	0.6351	0.5923	0.038
Mof_C 	C 	0.5	0.6534	0.6313	-0.034
Mof_C 	C 	0.5	0.6801	0.6457	0.11
Mof_C 	C 	0.5	0.7057	0.6308	-0.162
Mof_H 	H 	0.5	0.7232	0.6403	0.086
Mof_C 	C 	0.5	0.7042	0.6018	0.068
Mof_H 	H 	0.5	0.7211	0.5914	0.016
Mof_O 	O 	1.71464e-33	0.15397	0.45731	-0.482
Mof_O 	O 	-2.22339e-33	0.20179	0.45752	-0.487
Mof_C 	C 	1.66961e-33	0.1781	0.4453	0.406
Mof_C 	C 	-2.38994e-33	0.1782	0.4131	-0.126
Mof_C 	C 	-2.44618e-33	0.1524	0.3981	0.009
Mof_H 	H 	-2.41019e-33	0.1351	0.4077	0.038
Mof_C 	C 	1.3824e-33	0.1534	0.3687	-0.035
Mof_C 	C 	-2.6104e-33	0.1801	0.3543	0.11
Mof_C 	C 	1.38428e-33	0.2057	0.3692	-0.162
Mof_H 	H 	-6.52898e-33	0.2232	0.3597	0.085
Mof_C 	C 	1.49301e-33	0.2042	0.3982	0.067
Mof_H 	H 	1.532e-33	0.2211	0.4086	0.015
Mof_O 	O 	-1.21659e-32	0.65397	0.95731	-0.481
Mof_O 	O 	1.14678e-32	0.70179	0.95752	-0.486
Mof_C 	C 	-4.33333e-33	0.6781	0.9453	0.406
Mof_C 	C 	3.42358e-33	0.6782	0.9131	-0.125
Mof_C 	C 	-4.5103e-33	0.6524	0.8981	0.009
Mof_H 	H 	-4.4743e-33	0.6351	0.9077	0.038
Mof_C 	C 	-4.62053e-33	0.6534	0.8687	-0.034
Mof_C 	C 	-1.25522e-32	0.6801	0.8543	0.109
Mof_C 	C 	-2.03739e-32	0.7057	0.8692	-0.162
Mof_H 	H 	1.1101e-32	0.7232	0.8597	0.085
Mof_C 	C 	-1.23876e-32	0.7042	0.8982	0.067
Mof_H 	H 	1.12843e-32	0.7211	0.9086	0.016
Mof_O 	O 	0.5	0.15397	0.95731	-0.481
Mof_O 	O 	0.5	0.20179	0.95752	-0.485
Mof_C 	C 	0.5	0.1781	0.9453	0.406
Mof_C 	C 	0.5	0.1782	0.9131	-0.125
Mof_C 	C 	0.5	0.1524	0.8981	0.009
Mof_H 	H 	0.5	0.1351	0.9077	0.039
Mof_C 	C 	0.5	0.1534	0.8687	-0.034
Mof_C 	C 	0.5	0.1801	0.8543	0.11
Mof_C 	C 	0.5	0.2057	0.8692	-0.162
Mof_H 	H 	0.5	0.2232	0.8597	0.086
Mof_C 	C 	0.5	0.2042	0.8982	0.067
Mof_H 	H 	0.5	0.2211	0.9086	0.016
Mof_O 	O 	0.5	0.65397	0.45731	-0.482
Mof_O 	O 	0.5	0.70179	0.45752	-0.486
Mof_C 	C 	0.5	0.6781	0.4453	0.406
Mof_C 	C 	0.5	0.6782	0.4131	-0.125
Mof_C 	C 	0.5	0.6524	0.3981	0.009
Mof_H 	H 	0.5	0.6351	0.4077	0.038
Mof_C 	C 	0.5	0.6534	0.3687	-0.034
Mof_C 	C 	0.5	0.6801	0.3543	0.11
Mof_C 	C 	0.5	0.7057	0.3692	-0.162
Mof_H 	H 	0.5	0.7232	0.3597	0.086
Mof_C 	C 	0.5	0.7042	0.3982	0.068
Mof_H 	H 	0.5	0.7211	0.4086	0.016
Mof_O 	O 	5.77295e-34	0.45731	0.15397	-0.482
Mof_O 	O 	7.56591e-34	0.45752	0.20179	-0.487
Mof_C 	C 	2.63718e-33	0.4453	0.1781	0.406
Mof_C 	C 	6.68143e-34	0.4131	0.1782	-0.126
Mof_C 	C 	-3.36741e-33	0.3981	0.1524	0.009
Mof_H 	H 	-3.43227e-33	0.4077	0.1351	0.038
Mof_C 	C 	5.75158e-34	0.3687	0.1534	-0.035
Mof_C 	C 	-3.26355e-33	0.3543	0.1801	0.11
Mof_C 	C 	2.74066e-33	0.3692	0.2057	-0.162
Mof_H 	H 	-7.04077e-33	0.3597	0.2232	0.085
Mof_C 	C 	7.65627e-34	0.3982	0.2042	0.067
Mof_H 	H 	2.7984e-33	0.4086	0.2211	0.015
Mof_O 	O 	-5.42564e-33	0.95731	0.65397	-0.481
Mof_O 	O 	1.05089e-32	0.95752	0.70179	-0.486
Mof_C 	C 	2.54247e-33	0.9453	0.6781	0.406
Mof_C 	C 	2.54284e-33	0.9131	0.6782	-0.125
Mof_C 	C 	2.44611e-33	0.8981	0.6524	0.009
Mof_H 	H 	2.38124e-33	0.9077	0.6351	0.038
Mof_C 	C 	-5.42778e-33	0.8687	0.6534	-0.034
Mof_C 	C 	-5.32767e-33	0.8543	0.6801	0.109
Mof_C 	C 	-2.0987e-32	0.8692	0.7057	-0.162
Mof_H 	H 	1.05892e-32	0.8597	0.7232	0.085
Mof_C 	C 	-1.31149e-32	0.8982	0.7042	0.067
Mof_H 	H 	1.05813e-32	0.9086	0.7211	0.016
Mof_O 	O 	0.5	0.45731	0.65397	-0.482
Mof_O 	O 	0.5	0.45752	0.70179	-0.486
Mof_C 	C 	0.5	0.4453	0.6781	0.406
Mof_C 	C 	0.5	0.4131	0.6782	-0.125
Mof_C 	C 	0.5	0.3981	0.6524	0.009
Mof_H 	H 	0.5	0.4077	0.6351	0.038
Mof_C 	C 	0.5	0.3687	0.6534	-0.034
Mof_C 	C 	0.5	0.3543	0.6801	0.11
Mof_C 	C 	0.5	0.3692	0.7057	-0.162
Mof_H 	H 	0.5	0.3597	0.7232	0.086
Mof_C 	C 	0.5	0.3982	0.7042	0.068
Mof_H 	H 	0.5	0.4086	0.7211	0.016
Mof_O 	O 	0.5	0.95731	0.15397	-0.481
Mof_O 	O 	0.5	0.95752	0.20179	-0.485
Mof_C 	C 	0.5	0.9453	0.1781	0.406
Mof_C 	C 	0.5	0.9131	0.1782	-0.125
Mof_C 	C 	0.5	0.8981	0.1524	0.009
Mof_H 	H 	0.5	0.9077	0.1351	0.039
Mof_C 	C 	0.5	0.8687	0.1534	-0.034
Mof_C 	C 	0.5	0.8543	0.1801	0.11
Mof_C 	C 	0.5	0.8692	0.2057	-0.162
Mof_H 	H 	0.5	0.8597	0.2232	0.086
Mof_C 	C 	0.5	0.8982	0.2042	0.067
Mof_H 	H 	0.5	0.9086	0.2211	0.016
Mof_O 	O 	5.77295e-34	0.54269	0.15397	-0.482
Mof_O 	O 	4.69541e-33	0.54248	0.20179	-0.487
Mof_C 	C 	-1.30164e-33	0.5547	0.1781	0.406
Mof_C 	C 	-3.27067e-33	0.5869	0.1782	-0.126
Mof_C 	C 	4.51023e-33	0.6019	0.1524	0.009
Mof_H 	H 	4.44536e-33	0.5923	0.1351	0.038
Mof_C 	C 	-7.30248e-33	0.6313	0.1534	-0.035
Mof_C 	C 	-7.20237e-33	0.6457	0.1801	0.11
Mof_C 	C 	-5.13697e-33	0.6308	0.2057	-0.162
Mof_H 	H 	8.7145e-33	0.6403	0.2232	0.085
Mof_C 	C 	-7.11201e-33	0.6018	0.2042	0.067
Mof_H 	H 	-1.14042e-33	0.5914	0.2211	0.015
Mof_O 	O 	2.45199e-33	0.04269	0.65397	-0.482
Mof_O 	O 	2.63129e-33	0.04248	0.70179	-0.487
Mof_C 	C 	-5.33517e-33	0.0547	0.6781	0.406
Mof_C 	C 	-1.32124e-32	0.0869	0.6782	-0.126
Mof_C 	C 	2.44611e-33	0.1019	0.6524	0.009
Mof_H 	H 	2.38124e-33	0.0923	0.6351	0.038
Mof_C 	C 	-5.42778e-33	0.1313	0.6534	-0.035
Mof_C 	C 	-5.32767e-33	0.1457	0.6801	0.11
Mof_C 	C 	-5.23168e-33	0.1308	0.7057	-0.162
Mof_H 	H 	2.71157e-33	0.1403	0.7232	0.085
Mof_C 	C 	-5.23731e-33	0.1018	0.7042	0.067
Mof_H 	H 	1.05813e-32	0.0914	0.7211	0.015
Mof_O 	O 	0.5	0.54269	0.65397	-0.482
Mof_O 	O 	0.5	0.54248	0.70179	-0.486
Mof_C 	C 	0.5	0.5547	0.6781	0.406
Mof_C 	C 	0.5	0.5869	0.6782	-0.125
Mof_C 	C 	0.5	0.6019	0.6524	0.009
Mof_H 	H 	0.5	0.5923	0.6351	0.038
Mof_C 	C 	0.5	0.6313	0.6534	-0.034
Mof_C 	C 	0.5	0.6457	0.6801	0.11
Mof_C 	C 	0.5	0.6308	0.7057	-0.162
Mof_H 	H 	0.5	0.6403	0.7232	0.086
Mof_C 	C 	0.5	0.6018	0.7042	0.068
Mof_H 	H 	0.5	0.5914	0.7211	0.016
Mof_O 	O 	0.5	0.04269	0.15397	-0.482
Mof_O 	O 	0.5	0.04248	0.20179	-0.487
Mof_C 	C 	0.5	0.0547	0.1781	0.406
Mof_C 	C 	0.5	0.0869	0.1782	-0.125
Mof_C 	C 	0.5	0.1019	0.1524	0.009
Mof_H 	H 	0.5	0.0923	0.1351	0.038
Mof_C 	C 	0.5	0.1313	0.1534	-0.034
Mof_C 	C 	0.5	0.1457	0.1801	0.11
Mof_C 	C 	0.5	0.1308	0.2057	-0.162
Mof_H 	H 	0.5	0.1403	0.2232	0.086
Mof_C 	C 	0.5	0.1018	0.2042	0.068
Mof_H 	H 	0.5	0.0914	0.2211	0.015
Mof_O 	O 	-1.25832e-32	0.54269	0.84603	-0.482
Mof_O 	O 	-1.27625e-32	0.54248	0.79821	-0.487
Mof_C 	C 	-4.796e-33	0.5547	0.8219	0.406
Mof_C 	C 	-1.2674e-32	0.5869	0.8218	-0.125
Mof_C 	C 	-1.25773e-32	0.6019	0.8476	0.009
Mof_H 	H 	3.24286e-33	0.5923	0.8649	0.038
Mof_C 	C 	-1.2581e-32	0.6313	0.8466	-0.035
Mof_C 	C 	-1.26811e-32	0.6457	0.8199	0.11
Mof_C 	C 	2.97815e-33	0.6308	0.7943	-0.162
Mof_H 	H 	2.91253e-33	0.6403	0.7768	0.085
Mof_C 	C 	-4.89386e-33	0.6018	0.7958	0.067
Mof_H 	H 	-4.95723e-33	0.5914	0.7789	0.015
Mof_O 	O 	-6.58023e-33	0.04269	0.34603	-0.482
Mof_O 	O 	1.11811e-33	0.04248	0.29821	-0.487
Mof_C 	C 	-2.73189e-33	0.0547	0.3219	0.406
Mof_C 	C 	-2.73226e-33	0.0869	0.3218	-0.126
Mof_C 	C 	-2.63553e-33	0.1019	0.3476	0.009
Mof_H 	H 	1.36816e-33	0.0923	0.3649	0.038
Mof_C 	C 	-2.63928e-33	0.1313	0.3466	-0.035
Mof_C 	C 	-2.73938e-33	0.1457	0.3199	0.11
Mof_C 	C 	1.10345e-33	0.1308	0.2943	-0.162
Mof_H 	H 	4.97665e-33	0.1403	0.2768	0.085
Mof_C 	C 	5.04789e-33	0.1018	0.2958	0.067
Mof_H 	H 	-4.86252e-33	0.0914	0.2789	0.015
Mof_O 	O 	0.5	0.54269	0.34603	-0.482
Mof_O 	O 	0.5	0.54248	0.29821	-0.487
Mof_C 	C 	0.5	0.5547	0.3219	0.406
Mof_C 	C 	0.5	0.5869	0.3218	-0.125
Mof_C 	C 	0.5	0.6019	0.3476	0.009
Mof_H 	H 	0.5	0.5923	0.3649	0.038
Mof_C 	C 	0.5	0.6313	0.3466	-0.034
Mof_C 	C 	0.5	0.6457	0.3199	0.11
Mof_C 	C 	0.5	0.6308	0.2943	-0.162
Mof_H 	H 	0.5	0.6403	0.2768	0.086
Mof_C 	C 	0.5	0.6018	0.2958	0.068
Mof_H 	H 	0.5	0.5914	0.2789	0.015
Mof_O 	O 	0.5	0.04269	0.84603	-0.482
Mof_O 	O 	0.5	0.04248	0.79821	-0.487
Mof_C 	C 	0.5	0.0547	0.8219	0.406
Mof_C 	C 	0.5	0.0869	0.8218	-0.125
Mof_C 	C 	0.5	0.1019	0.8476	0.009
Mof_H 	H 	0.5	0.0923	0.8649	0.038
Mof_C 	C 	0.5	0.1313	0.8466	-0.034
Mof_C 	C 	0.5	0.1457	0.8199	0.11
Mof_C 	C 	0.5	0.1308	0.7943	-0.162
Mof_H 	H 	0.5	0.1403	0.7768	0.085
Mof_C 	C 	0.5	0.1018	0.7958	0.068
Mof_H 	H 	0.5	0.0914	0.7789	0.015
Mof_O 	O 	-4.70553e-33	0.45731	0.84603	-0.482
Mof_O 	O 	2.99281e-33	0.45752	0.79821	-0.487
Mof_C 	C 	1.09593e-32	0.4453	0.8219	0.406
Mof_C 	C 	-4.79638e-33	0.4131	0.8218	-0.125
Mof_C 	C 	-2.04549e-32	0.3981	0.8476	0.009
Mof_H 	H 	-4.63478e-33	0.4077	0.8649	0.038
Mof_C 	C 	-2.04587e-32	0.3687	0.8466	-0.035
Mof_C 	C 	3.07413e-33	0.3543	0.8199	0.11
Mof_C 	C 	2.97815e-33	0.3692	0.7943	-0.162
Mof_H 	H 	2.91253e-33	0.3597	0.7768	0.085
Mof_C 	C 	2.98377e-33	0.3982	0.7958	0.067
Mof_H 	H 	-4.95723e-33	0.4086	0.7789	0.015
Mof_O 	O 	-1.0519e-32	0.95731	0.34603	-0.481
Mof_O 	O 	-2.82071e-33	0.95752	0.29821	-0.486
Mof_C 	C 	-2.73189e-33	0.9453	0.3219	0.406
Mof_C 	C 	-2.73226e-33	0.9131	0.3218	-0.125
Mof_C 	C 	-1.05132e-32	0.8981	0.3476	0.009
Mof_H 	H 	5.30697e-33	0.9077	0.3649	0.038
Mof_C 	C 	-6.57809e-33	0.8687	0.3466	-0.034
Mof_C 	C 	-1.0617e-32	0.8543	0.3199	0.109
Mof_C 	C 	1.10345e-33	0.8692	0.2943	-0.162
Mof_H 	H 	1.03783e-33	0.8597	0.2768	0.085
Mof_C 	C 	-6.76856e-33	0.8982	0.2958	0.067
Mof_H 	H 	3.01512e-33	0.9086	0.2789	0.016
Mof_O 	O 	0.5	0.45731	0.34603	-0.482
Mof_O 	O 	0.5	0.45752	0.29821	-0.487
Mof_C 	C 	0.5	0.4453	0.3219	0.406
Mof_C 	C 	0.5	0.4131	0.3218	-0.125
Mof_C 	C 	0.5	0.3981	0.3476	0.009
Mof_H 	H 	0.5	0.4077	0.3649	0.038
Mof_C 	C 	0.5	0.3687	0.3466	-0.034
Mof_C 	C 	0.5	0.3543	0.3199	0.11
Mof_C 	C 	0.5	0.3692	0.2943	-0.162
Mof_H 	H 	0.5	0.3597	0.2768	0.086
Mof_C 	C 	0.5	0.3982	0.2958	0.068
Mof_H 	H 	0.5	0.4086	0.2789	0.015
Mof_O 	O 	0.5	0.95731	0.84603	-0.48
Mof_O 	O 	0.5	0.95752	0.79821	-0.485
Mof_C 	C 	0.5	0.9453	0.8219	0.406
Mof_C 	C 	0.5	0.9131	0.8218	-0.125
Mof_C 	C 	0.5	0.8981	0.8476	0.009
Mof_H 	H 	0.5	0.9077	0.8649	0.039
Mof_C 	C 	0.5	0.8687	0.8466	-0.034
Mof_C 	C 	0.5	0.8543	0.8199	0.11
Mof_C 	C 	0.5	0.8692	0.7943	-0.162
Mof_H 	H 	0.5	0.8597	0.7768	0.086
Mof_C 	C 	0.5	0.8982	0.7958	0.067
Mof_H 	H 	0.5	0.9086	0.7789	0.016
Mof_O 	O 	0.45731	0.84603	-0	-0.482
Mof_O 	O 	0.45752	0.79821	-0	-0.487
Mof_C 	C 	0.4453	0.8219	-0	0.406
Mof_C 	C 	0.4131	0.8218	-0	-0.125
Mof_C 	C 	0.3981	0.8476	-0	0.009
Mof_H 	H 	0.4077	0.8649	-0	0.038
Mof_C 	C 	0.3687	0.8466	-0	-0.035
Mof_C 	C 	0.3543	0.8199	-0	0.11
Mof_C 	C 	0.3692	0.7943	-0	-0.162
Mof_H 	H 	0.3597	0.7768	-0	0.085
Mof_C 	C 	0.3982	0.7958	-0	0.067
Mof_H 	H 	0.4086	0.7789	-0	0.015
Mof_O 	O 	0.45731	0.34603	0.5	-0.482
Mof_O 	O 	0.45752	0.29821	0.5	-0.487
Mof_C 	C 	0.4453	0.3219	0.5	0.406
Mof_C 	C 	0.4131	0.3218	0.5	-0.125
Mof_C 	C 	0.3981	0.3476	0.5	0.009
Mof_H 	H 	0.4077	0.3649	0.5	0.038
Mof_C 	C 	0.3687	0.3466	0.5	-0.034
Mof_C 	C 	0.3543	0.3199	0.5	0.11
Mof_C 	C 	0.3692	0.2943	0.5	-0.162
Mof_H 	H 	0.3597	0.2768	0.5	0.086
Mof_C 	C 	0.3982	0.2958	0.5	0.068
Mof_H 	H 	0.4086	0.2789	0.5	0.015
Mof_O 	O 	0.95731	0.84603	0.5	-0.48
Mof_O 	O 	0.95752	0.79821	0.5	-0.485
Mof_C 	C 	0.9453	0.8219	0.5	0.406
Mof_C 	C 	0.9131	0.8218	0.5	-0.125
Mof_C 	C 	0.8981	0.8476	0.5	0.009
Mof_H 	H 	0.9077	0.8649	0.5	0.039
Mof_C 	C 	0.8687	0.8466	0.5	-0.034
Mof_C 	C 	0.8543	0.8199	0.5	0.11
Mof_C 	C 	0.8692	0.7943	0.5	-0.162
Mof_H 	H 	0.8597	0.7768	0.5	0.086
Mof_C 	C 	0.8982	0.7958	0.5	0.067
Mof_H 	H 	0.9086	0.7789	0.5	0.016
Mof_O 	O 	0.95731	0.34603	-0	-0.481
Mof_O 	O 	0.95752	0.29821	-0	-0.486
Mof_C 	C 	0.9453	0.3219	-0	0.406
Mof_C 	C 	0.9131	0.3218	-0	-0.125
Mof_C 	C 	0.8981	0.3476	-0	0.009
Mof_H 	H 	0.9077	0.3649	-0	0.038
Mof_C 	C 	0.8687	0.3466	-0	-0.034
Mof_C 	C 	0.8543	0.3199	-0	0.109
Mof_C 	C 	0.8692	0.2943	-0	-0.162
Mof_H 	H 	0.8597	0.2768	-0	0.085
Mof_C 	C 	0.8982	0.2958	-0	0.067
Mof_H 	H 	0.9086	0.2789	-0	0.016
Mof_O 	O 	0.54269	0.84603	-0	-0.482
Mof_O 	O 	0.54248	0.79821	-0	-0.487
Mof_C 	C 	0.5547	0.8219	-0	0.406
Mof_C 	C 	0.5869	0.8218	-0	-0.125
Mof_C 	C 	0.6019	0.8476	-0	0.009
Mof_H 	H 	0.5923	0.8649	-0	0.038
Mof_C 	C 	0.6313	0.8466	-0	-0.035
Mof_C 	C 	0.6457	0.8199	-0	0.11
Mof_C 	C 	0.6308	0.7943	-0	-0.162
Mof_H 	H 	0.6403	0.7768	-0	0.085
Mof_C 	C 	0.6018	0.7958	-0	0.067
Mof_H 	H 	0.5914	0.7789	-0	0.015
Mof_O 	O 	0.54269	0.34603	0.5	-0.482
Mof_O 	O 	0.54248	0.29821	0.5	-0.487
Mof_C 	C 	0.5547	0.3219	0.5	0.406
Mof_C 	C 	0.5869	0.3218	0.5	-0.125
Mof_C 	C 	0.6019	0.3476	0.5	0.009
Mof_H 	H 	0.5923	0.3649	0.5	0.038
Mof_C 	C 	0.6313	0.3466	0.5	-0.034
Mof_C 	C 	0.6457	0.3199	0.5	0.11
Mof_C 	C 	0.6308	0.2943	0.5	-0.162
Mof_H 	H 	0.6403	0.2768	0.5	0.086
Mof_C 	C 	0.6018	0.2958	0.5	0.068
Mof_H 	H 	0.5914	0.2789	0.5	0.015
Mof_O 	O 	0.04269	0.84603	0.5	-0.482
Mof_O 	O 	0.04248	0.79821	0.5	-0.487
Mof_C 	C 	0.0547	0.8219	0.5	0.406
Mof_C 	C 	0.0869	0.8218	0.5	-0.125
Mof_C 	C 	0.1019	0.8476	0.5	0.009
Mof_H 	H 	0.0923	0.8649	0.5	0.038
Mof_C 	C 	0.1313	0.8466	0.5	-0.034
Mof_C 	C 	0.1457	0.8199	0.5	0.11
Mof_C 	C 	0.1308	0.7943	0.5	-0.162
Mof_H 	H 	0.1403	0.7768	0.5	0.085
Mof_C 	C 	0.1018	0.7958	0.5	0.068
Mof_H 	H 	0.0914	0.7789	0.5	0.015
Mof_O 	O 	0.04269	0.34603	-0	-0.482
Mof_O 	O 	0.04248	0.29821	-0	-0.487
Mof_C 	C 	0.0547	0.3219	-0	0.406
Mof_C 	C 	0.0869	0.3218	-0	-0.126
Mof_C 	C 	0.1019	0.3476	-0	0.009
Mof_H 	H 	0.0923	0.3649	-0	0.038
Mof_C 	C 	0.1313	0.3466	-0	-0.035
Mof_C 	C 	0.1457	0.3199	-0	0.11
Mof_C 	C 	0.1308	0.2943	-0	-0.162
Mof_H 	H 	0.1403	0.2768	-0	0.085
Mof_C 	C 	0.1018	0.2958	-0	0.067
Mof_H 	H 	0.0914	0.2789	-0	0.015
Mof_O 	O 	0.54269	0.15397	-0	-0.482
Mof_O 	O 	0.54248	0.20179	-0	-0.487
Mof_C 	C 	0.5547	0.1781	-0	0.406
Mof_C 	C 	0.5869	0.1782	-0	-0.126
Mof_C 	C 	0.6019	0.1524	-0	0.009
Mof_H 	H 	0.5923	0.1351	-0	0.038
Mof_C 	C 	0.6313	0.1534	-0	-0.035
Mof_C 	C 	0.6457	0.1801	-0	0.11
Mof_C 	C 	0.6308	0.2057	-0	-0.162
Mof_H 	H 	0.6403	0.2232	-0	0.085
Mof_C 	C 	0.6018	0.2042	-0	0.067
Mof_H 	H 	0.5914	0.2211	-0	0.015
Mof_O 	O 	0.54269	0.65397	0.5	-0.482
Mof_O 	O 	0.54248	0.70179	0.5	-0.486
Mof_C 	C 	0.5547	0.6781	0.5	0.406
Mof_C 	C 	0.5869	0.6782	0.5	-0.125
Mof_C 	C 	0.6019	0.6524	0.5	0.009
Mof_H 	H 	0.5923	0.6351	0.5	0.038
Mof_C 	C 	0.6313	0.6534	0.5	-0.034
Mof_C 	C 	0.6457	0.6801	0.5	0.11
Mof_C 	C 	0.6308	0.7057	0.5	-0.162
Mof_H 	H 	0.6403	0.7232	0.5	0.086
Mof_C 	C 	0.6018	0.7042	0.5	0.068
Mof_H 	H 	0.5914	0.7211	0.5	0.016
Mof_O 	O 	0.04269	0.15397	0.5	-0.482
Mof_O 	O 	0.04248	0.20179	0.5	-0.487
Mof_C 	C 	0.0547	0.1781	0.5	0.406
Mof_C 	C 	0.0869	0.1782	0.5	-0.125
Mof_C 	C 	0.1019	0.1524	0.5	0.009
Mof_H 	H 	0.0923	0.1351	0.5	0.038
Mof_C 	C 	0.1313	0.1534	0.5	-0.034
Mof_C 	C 	0.1457	0.1801	0.5	0.11
Mof_C 	C 	0.1308	0.2057	0.5	-0.162
Mof_H 	H 	0.1403	0.2232	0.5	0.086
Mof_C 	C 	0.1018	0.2042	0.5	0.068
Mof_H 	H 	0.0914	0.2211	0.5	0.015
Mof_O 	O 	0.04269	0.65397	-0	-0.482
Mof_O 	O 	0.04248	0.70179	-0	-0.487
Mof_C 	C 	0.0547	0.6781	-0	0.406
Mof_C 	C 	0.0869	0.6782	-0	-0.126
Mof_C 	C 	0.1019	0.6524	-0	0.009
Mof_H 	H 	0.0923	0.6351	-0	0.038
Mof_C 	C 	0.1313	0.6534	-0	-0.035
Mof_C 	C 	0.1457	0.6801	-0	0.11
Mof_C 	C 	0.1308	0.7057	-0	-0.162
Mof_H 	H 	0.1403	0.7232	-0	0.085
Mof_C 	C 	0.1018	0.7042	-0	0.067
Mof_H 	H 	0.0914	0.7211	-0	0.015
Mof_O 	O 	0.45731	0.15397	-0	-0.482
Mof_O 	O 	0.45752	0.20179	-0	-0.487
Mof_C 	C 	0.4453	0.1781	-0	0.406
Mof_C 	C 	0.4131	0.1782	-0	-0.126
Mof_C 	C 	0.3981	0.1524	-0	0.009
Mof_H 	H 	0.4077	0.1351	-0	0.038
Mof_C 	C 	0.3687	0.1534	-0	-0.035
Mof_C 	C 	0.3543	0.1801	-0	0.11
Mof_C 	C 	0.3692	0.2057	-0	-0.162
Mof_H 	H 	0.3597	0.2232	-0	0.085
Mof_C 	C 	0.3982	0.2042	-0	0.067
Mof_H 	H 	0.4086	0.2211	-0	0.015
Mof_O 	O 	0.45731	0.65397	0.5	-0.482
Mof_O 	O 	0.45752	0.70179	0.5	-0.486
Mof_C 	C 	0.4453	0.6781	0.5	0.406
Mof_C 	C 	0.4131	0.6782	0.5	-0.125
Mof_C 	C 	0.3981	0.6524	0.5	0.009
Mof_H 	H 	0.4077	0.6351	0.5	0.038
Mof_C 	C 	0.3687	0.6534	0.5	-0.034
Mof_C 	C 	0.3543	0.6801	0.5	0.11
Mof_C 	C 	0.3692	0.7057	0.5	-0.162
Mof_H 	H 	0.3597	0.7232	0.5	0.086
Mof_C 	C 	0.3982	0.7042	0.5	0.068
Mof_H 	H 	0.4086	0.7211	0.5	0.016
Mof_O 	O 	0.95731	0.15397	0.5	-0.481
Mof_O 	O 	0.95752	0.20179	0.5	-0.485
Mof_C 	C 	0.9453	0.1781	0.5	0.406
Mof_C 	C 	0.9131	0.1782	0.5	-0.125
Mof_C 	C 	0.8981	0.1524	0.5	0.009
Mof_H 	H 	0.9077	0.1351	0.5	0.039
Mof_C 	C 	0.8687	0.1534	0.5	-0.034
Mof_C 	C 	0.8543	0.1801	0.5	0.11
Mof_C 	C 	0.8692	0.2057	0.5	-0.162
Mof_H 	H 	0.8597	0.2232	0.5	0.086
Mof_C 	C 	0.8982	0.2042	0.5	0.067
Mof_H 	H 	0.9086	0.2211	0.5	0.016
Mof_O 	O 	0.95731	0.65397	-0	-0.481
Mof_O 	O 	0.95752	0.70179	-0	-0.486
Mof_C 	C 	0.9453	0.6781	-0	0.406
Mof_C 	C 	0.9131	0.6782	-0	-0.125
Mof_C 	C 	0.8981	0.6524	-0	0.009
Mof_H 	H 	0.9077	0.6351	-0	0.038
Mof_C 	C 	0.8687	0.6534	-0	-0.034
Mof_C 	C 	0.8543	0.6801	-0	0.109
Mof_C 	C 	0.8692	0.7057	-0	-0.162
Mof_H 	H 	0.8597	0.7232	-0	0.085
Mof_C 	C 	0.8982	0.7042	-0	0.067
Mof_H 	H 	0.9086	0.7211	-0	0.016
Mof_O 	O 	0.84603	-3.93882e-33	0.54269	-0.482
Mof_O 	O 	0.79821	0	0.54248	-0.487
Mof_C 	C 	0.8219	0	0.5547	0.406
Mof_C 	C 	0.8218	0	0.5869	-0.125
Mof_C 	C 	0.8476	0	0.6019	0.009
Mof_H 	H 	0.8649	0	0.5923	0.038
Mof_C 	C 	0.8466	-7.87763e-33	0.6313	-0.035
Mof_C 	C 	0.8199	0	0.6457	0.11
Mof_C 	C 	0.7943	0	0.6308	-0.162
Mof_H 	H 	0.7768	7.87763e-33	0.6403	0.085
Mof_C 	C 	0.7958	-7.87763e-33	0.6018	0.067
Mof_H 	H 	0.7789	0	0.5914	0.015
Mof_O 	O 	0.84603	0.5	0.04269	-0.482
Mof_O 	O 	0.79821	0.5	0.04248	-0.487
Mof_C 	C 	0.8219	0.5	0.0547	0.406
Mof_C 	C 	0.8218	0.5	0.0869	-0.125
Mof_C 	C 	0.8476	0.5	0.1019	0.009
Mof_H 	H 	0.8649	0.5	0.0923	0.038
Mof_C 	C 	0.8466	0.5	0.1313	-0.034
Mof_C 	C 	0.8199	0.5	0.1457	0.11
Mof_C 	C 	0.7943	0.5	0.1308	-0.162
Mof_H 	H 	0.7768	0.5	0.1403	0.085
Mof_C 	C 	0.7958	0.5	0.1018	0.068
Mof_H 	H 	0.7789	0.5	0.0914	0.015
Mof_O 	O 	0.34603	-4.92352e-34	0.04269	-0.482
Mof_O 	O 	0.29821	-4.92352e-34	0.04248	-0.487
Mof_C 	C 	0.3219	-4.92352e-34	0.0547	0.406
Mof_C 	C 	0.3218	0	0.0869	-0.126
Mof_C 	C 	0.3476	0	0.1019	0.009
Mof_H 	H 	0.3649	0	0.0923	0.038
Mof_C 	C 	0.3466	0	0.1313	-0.035
Mof_C 	C 	0.3199	0	0.1457	0.11
Mof_C 	C 	0.2943	0	0.1308	-0.162
Mof_H 	H 	0.2768	0	0.1403	0.085
Mof_C 	C 	0.2958	9.84704e-34	0.1018	0.067
Mof_H 	H 	0.2789	-9.84704e-34	0.0914	0.015
Mof_O 	O 	0.34603	0.5	0.54269	-0.482
Mof_O 	O 	0.29821	0.5	0.54248	-0.487
Mof_C 	C 	0.3219	0.5	0.5547	0.406
Mof_C 	C 	0.3218	0.5	0.5869	-0.125
Mof_C 	C 	0.3476	0.5	0.6019	0.009
Mof_H 	H 	0.3649	0.5	0.5923	0.038
Mof_C 	C 	0.3466	0.5	0.6313	-0.034
Mof_C 	C 	0.3199	0.5	0.6457	0.11
Mof_C 	C 	0.2943	0.5	0.6308	-0.162
Mof_H 	H 	0.2768	0.5	0.6403	0.086
Mof_C 	C 	0.2958	0.5	0.6018	0.068
Mof_H 	H 	0.2789	0.5	0.5914	0.015
Mof_O 	O 	0.84603	3.93882e-33	0.45731	-0.482
Mof_O 	O 	0.79821	0	0.45752	-0.487
Mof_C 	C 	0.8219	3.93882e-33	0.4453	0.406
Mof_C 	C 	0.8218	0	0.4131	-0.125
Mof_C 	C 	0.8476	0	0.3981	0.009
Mof_H 	H 	0.8649	0	0.4077	0.038
Mof_C 	C 	0.8466	0	0.3687	-0.035
Mof_C 	C 	0.8199	0	0.3543	0.11
Mof_C 	C 	0.7943	0	0.3692	-0.162
Mof_H 	H 	0.7768	-3.93882e-33	0.3597	0.085
Mof_C 	C 	0.7958	3.93882e-33	0.3982	0.067
Mof_H 	H 	0.7789	0	0.4086	0.015
Mof_O 	O 	0.84603	0.5	0.95731	-0.48
Mof_O 	O 	0.79821	0.5	0.95752	-0.485
Mof_C 	C 	0.8219	0.5	0.9453	0.406
Mof_C 	C 	0.8218	0.5	0.9131	-0.125
Mof_C 	C 	0.8476	0.5	0.8981	0.009
Mof_H 	H 	0.8649	0.5	0.9077	0.039
Mof_C 	C 	0.8466	0.5	0.8687	-0.034
Mof_C 	C 	0.8199	0.5	0.8543	0.11
Mof_C 	C 	0.7943	0.5	0.8692	-0.162
Mof_H 	H 	0.7768	0.5	0.8597	0.086
Mof_C 	C 	0.7958	0.5	0.8982	0.067
Mof_H 	H 	0.7789	0.5	0.9086	0.016
Mof_O 	O 	0.34603	-7.87763e-33	0.95731	-0.481
Mof_O 	O 	0.29821	0	0.95752	-0.486
Mof_C 	C 	0.3219	-7.87763e-33	0.9453	0.406
Mof_C 	C 	0.3218	0	0.9131	-0.125
Mof_C 	C 	0.3476	0	0.8981	0.009
Mof_H 	H 	0.3649	7.87763e-33	0.9077	0.038
Mof_C 	C 	0.3466	0	0.8687	-0.034
Mof_C 	C 	0.3199	-7.87763e-33	0.8543	0.109
Mof_C 	C 	0.2943	-1.57553e-32	0.8692	-0.162
Mof_H 	H 	0.2768	0	0.8597	0.085
Mof_C 	C 	0.2958	-7.87763e-33	0.8982	0.067
Mof_H 	H 	0.2789	0	0.9086	0.016
Mof_O 	O 	0.34603	0.5	0.45731	-0.482
Mof_O 	O 	0.29821	0.5	0.45752	-0.487
Mof_C 	C 	0.3219	0.5	0.4453	0.406
Mof_C 	C 	0.3218	0.5	0.4131	-0.125
Mof_C 	C 	0.3476	0.5	0.3981	0.009
Mof_H 	H 	0.3649	0.5	0.4077	0.038
Mof_C 	C 	0.3466	0.5	0.3687	-0.034
Mof_C 	C 	0.3199	0.5	0.3543	0.11
Mof_C 	C 	0.2943	0.5	0.3692	-0.162
Mof_H 	H 	0.2768	0.5	0.3597	0.086
Mof_C 	C 	0.2958	0.5	0.3982	0.068
Mof_H 	H 	0.2789	0.5	0.4086	0.015
Mof_O 	O 	0.15397	3.93882e-33	0.45731	-0.482
Mof_O 	O 	0.20179	0	0.45752	-0.487
Mof_C 	C 	0.1781	3.93882e-33	0.4453	0.406
Mof_C 	C 	0.1782	0	0.4131	-0.126
Mof_C 	C 	0.1524	0	0.3981	0.009
Mof_H 	H 	0.1351	0	0.4077	0.038
Mof_C 	C 	0.1534	0	0.3687	-0.035
Mof_C 	C 	0.1801	0	0.3543	0.11
Mof_C 	C 	0.2057	0	0.3692	-0.162
Mof_H 	H 	0.2232	-3.93882e-33	0.3597	0.085
Mof_C 	C 	0.2042	3.93882e-33	0.3982	0.067
Mof_H 	H 	0.2211	0	0.4086	0.015
Mof_O 	O 	0.15397	0.5	0.95731	-0.481
Mof_O 	O 	0.20179	0.5	0.95752	-0.485
Mof_C 	C 	0.1781	0.5	0.9453	0.406
Mof_C 	C 	0.1782	0.5	0.9131	-0.125
Mof_C 	C 	0.1524	0.5	0.8981	0.009
Mof_H 	H 	0.1351	0.5	0.9077	0.039
Mof_C 	C 	0.1534	0.5	0.8687	-0.034
Mof_C 	C 	0.1801	0.5	0.8543	0.11
Mof_C 	C 	0.2057	0.5	0.8692	-0.162
Mof_H 	H 	0.2232	0.5	0.8597	0.086
Mof_C 	C 	0.2042	0.5	0.8982	0.067
Mof_H 	H 	0.2211	0.5	0.9086	0.016
Mof_O 	O 	0.65397	-7.87763e-33	0.95731	-0.481
Mof_O 	O 	0.70179	0	0.95752	-0.486
Mof_C 	C 	0.6781	-7.87763e-33	0.9453	0.406
Mof_C 	C 	0.6782	0	0.9131	-0.125
Mof_C 	C 	0.6524	0	0.8981	0.009
Mof_H 	H 	0.6351	7.87763e-33	0.9077	0.038
Mof_C 	C 	0.6534	0	0.8687	-0.034
Mof_C 	C 	0.6801	-7.87763e-33	0.8543	0.109
Mof_C 	C 	0.7057	-1.57553e-32	0.8692	-0.162
Mof_H 	H 	0.7232	0	0.8597	0.085
Mof_C 	C 	0.7042	-7.87763e-33	0.8982	0.067
Mof_H 	H 	0.7211	0	0.9086	0.016
Mof_O 	O 	0.65397	0.5	0.45731	-0.482
Mof_O 	O 	0.70179	0.5	0.45752	-0.486
Mof_C 	C 	0.6781	0.5	0.4453	0.406
Mof_C 	C 	0.6782	0.5	0.4131	-0.125
Mof_C 	C 	0.6524	0.5	0.3981	0.009
Mof_H 	H 	0.6351	0.5	0.4077	0.038
Mof_C 	C 	0.6534	0.5	0.3687	-0.034
Mof_C 	C 	0.6801	0.5	0.3543	0.11
Mof_C 	C 	0.7057	0.5	0.3692	-0.162
Mof_H 	H 	0.7232	0.5	0.3597	0.086
Mof_C 	C 	0.7042	0.5	0.3982	0.068
Mof_H 	H 	0.7211	0.5	0.4086	0.016
Mof_O 	O 	0.15397	-3.93882e-33	0.54269	-0.482
Mof_O 	O 	0.20179	0	0.54248	-0.487
Mof_C 	C 	0.1781	0	0.5547	0.406
Mof_C 	C 	0.1782	0	0.5869	-0.126
Mof_C 	C 	0.1524	0	0.6019	0.009
Mof_H 	H 	0.1351	0	0.5923	0.038
Mof_C 	C 	0.1534	-7.87763e-33	0.6313	-0.035
Mof_C 	C 	0.1801	0	0.6457	0.11
Mof_C 	C 	0.2057	0	0.6308	-0.162
Mof_H 	H 	0.2232	7.87763e-33	0.6403	0.085
Mof_C 	C 	0.2042	-7.87763e-33	0.6018	0.067
Mof_H 	H 	0.2211	0	0.5914	0.015
Mof_O 	O 	0.15397	0.5	0.04269	-0.482
Mof_O 	O 	0.20179	0.5	0.04248	-0.487
Mof_C 	C 	0.1781	0.5	0.0547	0.406
Mof_C 	C 	0.1782	0.5	0.0869	-0.125
Mof_C 	C 	0.1524	0.5	0.1019	0.009
Mof_H 	H 	0.1351	0.5	0.0923	0.038
Mof_C 	C 	0.1534	0.5	0.1313	-0.034
Mof_C 	C 	0.1801	0.5	0.1457	0.11
Mof_C 	C 	0.2057	0.5	0.1308	-0.162
Mof_H 	H 	0.2232	0.5	0.1403	0.086
Mof_C 	C 	0.2042	0.5	0.1018	0.068
Mof_H 	H 	0.2211	0.5	0.0914	0.015
Mof_O 	O 	0.65397	-4.92352e-34	0.04269	-0.482
Mof_O 	O 	0.70179	-4.92352e-34	0.04248	-0.487
Mof_C 	C 	0.6781	-4.92352e-34	0.0547	0.406
Mof_C 	C 	0.6782	0	0.0869	-0.126
Mof_C 	C 	0.6524	0	0.1019	0.009
Mof_H 	H 	0.6351	0	0.0923	0.038
Mof_C 	C 	0.6534	0	0.1313	-0.035
Mof_C 	C 	0.6801	0	0.1457	0.11
Mof_C 	C 	0.7057	0	0.1308	-0.162
Mof_H 	H 	0.7232	0	0.1403	0.085
Mof_C 	C 	0.7042	9.84704e-34	0.1018	0.067
Mof_H 	H 	0.7211	-9.84704e-34	0.0914	0.015
Mof_O 	O 	0.65397	0.5	0.54269	-0.482
Mof_O 	O 	0.70179	0.5	0.54248	-0.486
Mof_C 	C 	0.6781	0.5	0.5547	0.406
Mof_C 	C 	0.6782	0.5	0.5869	-0.125
Mof_C 	C 	0.6524	0.5	0.6019	0.009
Mof_H 	H 	0.6351	0.5	0.5923	0.038
Mof_C 	C 	0.6534	0.5	0.6313	-0.034
Mof_C 	C 	0.6801	0.5	0.6457	0.11
Mof_C 	C 	0.7057	0.5	0.6308	-0.162
Mof_H 	H 	0.7232	0.5	0.6403	0.086
Mof_C 	C 	0.7042	0.5	0.6018	0.068
Mof_H 	H 	0.7211	0.5	0.5914	0.016
Mof_N 	N 	0.3252	0	0.8252	-0.168
Mof_C 	C 	0.303	0	0.803	0.147
Mof_C 	C 	0.261	0	0.761	-0.008
Mof_N 	N 	0.3252	0.5	0.3252	-0.169
Mof_C 	C 	0.303	0.5	0.303	0.15
Mof_C 	C 	0.261	0.5	0.261	-0.006
Mof_N 	N 	0.6748	0	0.8252	-0.168
Mof_C 	C 	0.697	0	0.803	0.147
Mof_C 	C 	0.739	0	0.761	-0.008
Mof_N 	N 	0.6748	0.5	0.3252	-0.169
Mof_C 	C 	0.697	0.5	0.303	0.15
Mof_C 	C 	0.739	0.5	0.261	-0.006
Mof_N 	N 	0.6748	-1.96941e-33	0.1748	-0.169
Mof_C 	C 	0.697	0	0.197	0.147
Mof_C 	C 	0.739	-1.96941e-33	0.239	-0.008
Mof_N 	N 	0.6748	0.5	0.6748	-0.169
Mof_C 	C 	0.697	0.5	0.697	0.15
Mof_C 	C 	0.739	0.5	0.739	-0.006
Mof_N 	N 	0.3252	-1.96941e-33	0.1748	-0.169
Mof_C 	C 	0.303	0	0.197	0.147
Mof_C 	C 	0.261	-1.96941e-33	0.239	-0.008
Mof_N 	N 	0.3252	0.5	0.6748	-0.169
Mof_C 	C 	0.303	0.5	0.697	0.15
Mof_C 	C 	0.261	0.5	0.739	-0.006
Mof_N 	N 	0.8252	0.3252	-0	-0.168
Mof_C 	C 	0.803	0.303	-0	0.147
Mof_C 	C 	0.761	0.261	-0	-0.008
Mof_N 	N 	0.8252	0.8252	0.5	-0.169
Mof_C 	C 	0.803	0.803	0.5	0.15
Mof_C 	C 	0.761	0.761	0.5	-0.006
Mof_N 	N 	0.8252	0.6748	-0	-0.168
Mof_C 	C 	0.803	0.697	-0	0.147
Mof_C 	C 	0.761	0.739	-0	-0.008
Mof_N 	N 	0.8252	0.1748	0.5	-0.169
Mof_C 	C 	0.803	0.197	0.5	0.15
Mof_C 	C 	0.761	0.239	0.5	-0.006
Mof_N 	N 	0.1748	0.6748	-0	-0.169
Mof_C 	C 	0.197	0.697	-0	0.147
Mof_C 	C 	0.239	0.739	-0	-0.008
Mof_N 	N 	0.1748	0.1748	0.5	-0.169
Mof_C 	C 	0.197	0.197	0.5	0.15
Mof_C 	C 	0.239	0.239	0.5	-0.006
Mof_N 	N 	0.1748	0.3252	-0	-0.169
Mof_C 	C 	0.197	0.303	-0	0.147
Mof_C 	C 	0.239	0.261	-0	-0.008
Mof_N 	N 	0.1748	0.8252	0.5	-0.169
Mof_C 	C 	0.197	0.803	0.5	0.15
Mof_C 	C 	0.239	0.761	0.5	-0.006
Mof_N 	N 	5.15812e-33	0.8252	0.3252	-0.168
Mof_C 	C 	-6.74157e-33	0.803	0.303	0.147
Mof_C 	C 	9.78593e-34	0.761	0.261	-0.008
Mof_N 	N 	0.5	0.8252	0.8252	-0.169
Mof_C 	C 	0.5	0.803	0.803	0.15
Mof_C 	C 	0.5	0.761	0.761	-0.006
Mof_N 	N 	1.04077e-32	0.8252	0.6748	-0.168
Mof_C 	C 	-5.2643e-33	0.803	0.697	0.147
Mof_C 	C 	2.77081e-33	0.761	0.739	-0.008
Mof_N 	N 	0.5	0.8252	0.1748	-0.169
Mof_C 	C 	0.5	0.803	0.197	0.15
Mof_C 	C 	0.5	0.761	0.239	-0.006
Mof_N 	N 	-5.34754e-33	0.1748	0.6748	-0.169
Mof_C 	C 	-5.2643e-33	0.197	0.697	0.147
Mof_C 	C 	-5.10683e-33	0.239	0.739	-0.008
Mof_N 	N 	0.5	0.1748	0.1748	-0.169
Mof_C 	C 	0.5	0.197	0.197	0.15
Mof_C 	C 	0.5	0.239	0.239	-0.006
Mof_N 	N 	-2.71951e-33	0.1748	0.3252	-0.169
Mof_C 	C 	1.13607e-33	0.197	0.303	0.147
Mof_C 	C 	2.948e-33	0.239	0.261	-0.008
Mof_N 	N 	0.5	0.1748	0.8252	-0.169
Mof_C 	C 	0.5	0.197	0.803	0.15
Mof_C 	C 	0.5	0.239	0.761	-0.006
Mof_N 	N 	-3.28342e-33	0.3252	0.1748	-0.169
Mof_C 	C 	7.38632e-34	0.303	0.197	0.147
Mof_C 	C 	2.86551e-33	0.261	0.239	-0.008
Mof_N 	N 	0.5	0.3252	0.6748	-0.169
Mof_C 	C 	0.5	0.303	0.697	0.15
Mof_C 	C 	0.5	0.261	0.739	-0.006
Mof_N 	N 	-3.28342e-33	0.6748	0.1748	-0.169
Mof_C 	C 	-7.139e-33	0.697	0.197	0.147
Mof_C 	C 	-5.01212e-33	0.739	0.239	-0.008
Mof_N 	N 	0.5	0.6748	0.6748	-0.169
Mof_C 	C 	0.5	0.697	0.697	0.15
Mof_C 	C 	0.5	0.739	0.739	-0.006
Mof_N 	N 	1.09716e-32	0.6748	0.8252	-0.168
Mof_C 	C 	-4.86687e-33	0.697	0.803	0.147
Mof_C 	C 	2.85329e-33	0.739	0.761	-0.008
Mof_N 	N 	0.5	0.6748	0.3252	-0.169
Mof_C 	C 	0.5	0.697	0.303	0.15
Mof_C 	C 	0.5	0.739	0.261	-0.006
Mof_N 	N 	3.094e-33	0.3252	0.8252	-0.168
Mof_C 	C 	-4.86687e-33	0.303	0.803	0.147
Mof_C 	C 	2.85329e-33	0.261	0.761	-0.008
Mof_N 	N 	0.5	0.3252	0.3252	-0.169
Mof_C 	C 	0.5	0.303	0.303	0.15
Mof_C 	C 	0.5	0.261	0.261	-0.006
Mof_N 	N 	0.3252	0.8252	-0	-0.168
Mof_C 	C 	0.303	0.803	-0	0.147
Mof_C 	C 	0.261	0.761	-0	-0.008
Mof_N 	N 	0.3252	0.3252	0.5	-0.169
Mof_C 	C 	0.303	0.303	0.5	0.15
Mof_C 	C 	0.261	0.261	0.5	-0.006
Mof_N 	N 	0.6748	0.8252	-0	-0.168
Mof_C 	C 	0.697	0.803	-0	0.147
Mof_C 	C 	0.739	0.761	-0	-0.008
Mof_N 	N 	0.6748	0.3252	0.5	-0.169
Mof_C 	C 	0.697	0.303	0.5	0.15
Mof_C 	C 	0.739	0.261	0.5	-0.006
Mof_N 	N 	0.6748	0.1748	-0	-0.169
Mof_C 	C 	0.697	0.197	-0	0.147
Mof_C 	C 	0.739	0.239	-0	-0.008
Mof_N 	N 	0.6748	0.6748	0.5	-0.169
Mof_C 	C 	0.697	0.697	0.5	0.15
Mof_C 	C 	0.739	0.739	0.5	-0.006
Mof_N 	N 	0.3252	0.1748	-0	-0.169
Mof_C 	C 	0.303	0.197	-0	0.147
Mof_C 	C 	0.261	0.239	-0	-0.008
Mof_N 	N 	0.3252	0.6748	0.5	-0.169
Mof_C 	C 	0.303	0.697	0.5	0.15
Mof_C 	C 	0.261	0.739	0.5	-0.006
Mof_N 	N 	0.8252	0	0.6748	-0.168
Mof_C 	C 	0.803	-7.87763e-33	0.697	0.147
Mof_C 	C 	0.761	0	0.739	-0.008
Mof_N 	N 	0.8252	0.5	0.1748	-0.169
Mof_C 	C 	0.803	0.5	0.197	0.15
Mof_C 	C 	0.761	0.5	0.239	-0.006
Mof_N 	N 	0.8252	0	0.3252	-0.168
Mof_C 	C 	0.803	0	0.303	0.147
Mof_C 	C 	0.761	1.96941e-33	0.261	-0.008
Mof_N 	N 	0.8252	0.5	0.8252	-0.169
Mof_C 	C 	0.803	0.5	0.803	0.15
Mof_C 	C 	0.761	0.5	0.761	-0.006
Mof_N 	N 	0.1748	0	0.3252	-0.169
Mof_C 	C 	0.197	0	0.303	0.147
Mof_C 	C 	0.239	1.96941e-33	0.261	-0.008
Mof_N 	N 	0.1748	0.5	0.8252	-0.169
Mof_C 	C 	0.197	0.5	0.803	0.15
Mof_C 	C 	0.239	0.5	0.761	-0.006
Mof_N 	N 	0.1748	0	0.6748	-0.169
Mof_C 	C 	0.197	-7.87763e-33	0.697	0.147
Mof_C 	C 	0.239	0	0.739	-0.008
Mof_N 	N 	0.1748	0.5	0.1748	-0.169
Mof_C 	C 	0.197	0.5	0.197	0.15
Mof_C 	C 	0.239	0.5	0.239	-0.006
_end
