data_functionalizedCrystal
_audit_creation_method	'EQeq! by Chris Wilmer'
_symmetry_space_group_name_H-M	'P1'
_symmetry_Int_Tables_number	1
_symmetry_cell_setting	triclinic
loop_
_symmetry_equiv_pos_as_xyz
  x,y,z
_cell_length_a	17.468
_cell_length_b	6.0489
_cell_length_c	18.8144
_cell_angle_alpha	90
_cell_angle_beta	118.086
_cell_angle_gamma	90
loop_
_atom_site_label
_atom_site_type_symbol
_atom_site_fract_x
_atom_site_fract_y
_atom_site_fract_z
_atom_site_charge
Mof_O 	O 	0.16497	0.7481	0.37999	-0.333
Mof_N 	N 	0.96152	0.6201	0.31523	-0.269
Mof_C 	C 	0.8932	0.6665	0.3293	0.007
Mof_H 	H 	0.8553	0.785	0.3074	0.024
Mof_O 	O 	0.09566	0.0222	0.29858	-0.46
Mof_N 	N 	0.95626	0.3687	0.39703	-0.182
Mof_C 	C 	0.8893	0.5136	0.3798	0.022
Mof_H 	H 	0.8491	0.5077	0.3991	0.028
Mof_C 	C 	0.99791	0.442	0.35676	0.236
Mof_H 	H 	0.0465	0.3743	0.3584	-0.088
Mof_C 	C 	0.97841	0.1805	0.44903	0.289
Mof_C 	C 	0.9269	0.1211	0.4828	-0.256
Mof_H 	H 	0.8773	0.2026	0.4716	0.133
Mof_C 	C 	0.0514	0.0596	0.4665	-0.323
Mof_H 	H 	0.0868	0.0997	0.444	0.139
Mof_C 	C 	0.16351	0.9362	0.35422	0.339
Mof_C 	C 	0.24426	0.0751	0.3878	-0.145
Mof_C 	C 	0.3192	0.0047	0.4523	0.09
Mof_H 	H 	0.3208	0.8678	0.4755	0.011
Mof_C 	C 	0.3925	0.1361	0.4832	-0.174
Mof_H 	H 	0.4423	0.0859	0.5277	0.1
Mof_C 	C 	0.3946	0.3364	0.451	0.134
Mof_C 	C 	0.3198	0.4015	0.3868	-0.18
Mof_H 	H 	0.319	0.5365	0.3628	0.1
Mof_C 	C 	0.2444	0.2765	0.3551	0.096
Mof_H 	H 	0.1942	0.3295	0.3117	0.017
Mof_C 	C 	0.4624	0.5139	0.4693	0.014
Mof_C 	C 	0.4926	0.39	0.5119	-0.161
Mof_H 	H 	0.4934	0.527	0.5382	0.049
Mof_H 	H 	0.508	0.464	0.4646	0.046
Mof_O 	O 	0.83503	0.7481	0.12001	-0.317
Mof_N 	N 	0.03848	0.6201	0.18477	-0.253
Mof_C 	C 	0.1068	0.6665	0.1707	0.011
Mof_H 	H 	0.1447	0.785	0.1926	0.018
Mof_O 	O 	0.90434	0.0222	0.20142	-0.426
Mof_N 	N 	0.04374	0.3687	0.10297	-0.094
Mof_C 	C 	0.1107	0.5136	0.1202	-0.012
Mof_H 	H 	0.1509	0.5077	0.1009	0.039
Mof_C 	C 	0.00209	0.442	0.14324	-0.018
Mof_H 	H 	0.9535	0.3743	0.1416	0.075
Mof_C 	C 	0.02159	0.1805	0.05097	-0.097
Mof_C 	C 	0.0731	0.1211	0.0172	0.092
Mof_H 	H 	0.1227	0.2026	0.0284	0.004
Mof_C 	C 	0.9486	0.0596	0.0335	0.143
Mof_H 	H 	0.9132	0.0997	0.056	-0.004
Mof_C 	C 	0.83649	0.9362	0.14578	0.333
Mof_C 	C 	0.75574	0.0751	0.1122	-0.141
Mof_C 	C 	0.6808	0.0047	0.0477	0.093
Mof_H 	H 	0.6792	0.8678	0.0245	0.008
Mof_C 	C 	0.6075	0.1361	0.0168	-0.178
Mof_H 	H 	0.5577	0.0859	0.9723	0.102
Mof_C 	C 	0.6054	0.3364	0.049	0.135
Mof_C 	C 	0.6802	0.4015	0.1132	-0.18
Mof_H 	H 	0.681	0.5365	0.1372	0.099
Mof_C 	C 	0.7556	0.2765	0.1449	0.095
Mof_H 	H 	0.8058	0.3295	0.1883	0.018
Mof_C 	C 	0.5376	0.5139	0.0307	0.006
Mof_C 	C 	0.5074	0.39	0.9881	-0.154
Mof_H 	H 	0.5066	0.527	0.9618	0.05
Mof_H 	H 	0.492	0.464	0.0354	0.046
Mof_O 	O 	0.83503	0.2519	0.62001	-0.316
Mof_N 	N 	0.03848	0.3799	0.68477	-0.253
Mof_C 	C 	0.1068	0.3335	0.6707	0.011
Mof_H 	H 	0.1447	0.215	0.6926	0.018
Mof_O 	O 	0.90434	0.9778	0.70142	-0.428
Mof_N 	N 	0.04374	0.6313	0.60297	-0.093
Mof_C 	C 	0.1107	0.4864	0.6202	-0.013
Mof_H 	H 	0.1509	0.4923	0.6009	0.04
Mof_C 	C 	0.00209	0.558	0.64324	-0.018
Mof_H 	H 	0.9535	0.6257	0.6416	0.075
Mof_C 	C 	0.02159	0.8195	0.55097	-0.103
Mof_C 	C 	0.0731	0.8789	0.5172	0.104
Mof_H 	H 	0.1227	0.7974	0.5284	0
Mof_C 	C 	0.9486	0.9404	0.5335	0.152
Mof_H 	H 	0.9132	0.9003	0.556	-0.006
Mof_C 	C 	0.83649	0.0638	0.64578	0.336
Mof_C 	C 	0.75574	0.9249	0.6122	-0.139
Mof_C 	C 	0.6808	0.9953	0.5477	0.082
Mof_H 	H 	0.6792	0.1322	0.5245	0.014
Mof_C 	C 	0.6075	0.8639	0.5168	-0.168
Mof_H 	H 	0.5577	0.9141	0.4723	0.098
Mof_C 	C 	0.6054	0.6636	0.549	0.13
Mof_C 	C 	0.6802	0.5985	0.6132	-0.176
Mof_H 	H 	0.681	0.4635	0.6372	0.098
Mof_C 	C 	0.7556	0.7235	0.6449	0.091
Mof_H 	H 	0.8058	0.6705	0.6883	0.019
Mof_C 	C 	0.5376	0.4861	0.5307	0.017
Mof_C 	C 	0.5074	0.61	0.4881	-0.159
Mof_H 	H 	0.5066	0.473	0.4618	0.049
Mof_H 	H 	0.492	0.536	0.5354	0.045
Mof_O 	O 	0.16497	0.2519	0.87999	-0.331
Mof_N 	N 	0.96152	0.3799	0.81523	-0.269
Mof_C 	C 	0.8932	0.3335	0.8293	0.007
Mof_H 	H 	0.8553	0.215	0.8074	0.024
Mof_O 	O 	0.09566	0.9778	0.79858	-0.459
Mof_N 	N 	0.95626	0.6313	0.89703	-0.18
Mof_C 	C 	0.8893	0.4864	0.8798	0.021
Mof_H 	H 	0.8491	0.4923	0.8991	0.028
Mof_C 	C 	0.99791	0.558	0.85676	0.233
Mof_H 	H 	0.0465	0.6257	0.8584	-0.086
Mof_C 	C 	0.97841	0.8195	0.94903	0.279
Mof_C 	C 	0.9269	0.8789	0.9828	-0.247
Mof_H 	H 	0.8773	0.7974	0.9716	0.13
Mof_C 	C 	0.0514	0.9404	0.9665	-0.307
Mof_H 	H 	0.0868	0.9003	0.944	0.134
Mof_C 	C 	0.16351	0.0638	0.85422	0.337
Mof_C 	C 	0.24426	0.9249	0.8878	-0.14
Mof_C 	C 	0.3192	0.9953	0.9523	0.084
Mof_H 	H 	0.3208	0.1322	0.9755	0.013
Mof_C 	C 	0.3925	0.8639	0.9832	-0.159
Mof_H 	H 	0.4423	0.9141	0.0277	0.091
Mof_C 	C 	0.3946	0.6636	0.951	0.128
Mof_C 	C 	0.3198	0.5985	0.8868	-0.175
Mof_H 	H 	0.319	0.4635	0.8628	0.098
Mof_C 	C 	0.2444	0.7235	0.8551	0.091
Mof_H 	H 	0.1942	0.6705	0.8117	0.019
Mof_C 	C 	0.4624	0.4861	0.9693	0.015
Mof_C 	C 	0.4926	0.61	0.0119	-0.159
Mof_H 	H 	0.4934	0.473	0.0382	0.048
Mof_H 	H 	0.508	0.536	0.9646	0.045
Mof_Zn	Zn	1.48491e-33	0.80726	0.25	1.192
Mof_Zn	Zn	-6.48205e-17	0.19274	0.75	1.192
_end
