data_functionalizedCrystal
_audit_creation_method	'EQeq! by Chris Wilmer'
_symmetry_space_group_name_H-M	'P1'
_symmetry_Int_Tables_number	1
_symmetry_cell_setting	triclinic
loop_
_symmetry_equiv_pos_as_xyz
  x,y,z
_cell_length_a	23.01
_cell_length_b	9.672
_cell_length_c	26.09
_cell_angle_alpha	90
_cell_angle_beta	97.62
_cell_angle_gamma	90
loop_
_atom_site_label
_atom_site_type_symbol
_atom_site_fract_x
_atom_site_fract_y
_atom_site_fract_z
_atom_site_charge
Mof_Zn	Zn	0.21504	0.12173	0.98905	1.218
Mof_N 	N 	0.0157	0.0463	0.0048	-0.027
Mof_C 	C 	0.997	0.1481	0.9695	-0.455
Mof_C 	C 	0.9493	0.1465	0.9307	0.245
Mof_H 	H 	0.9253	0.069	0.9261	-0.189
Mof_C 	C 	0.9376	0.2609	0.8988	-1.298
Mof_H 	H 	0.9057	0.2599	0.8728	1.113
Mof_C 	C 	0.9735	0.3769	0.9056	0.37
Mof_H 	H 	0.9656	0.4534	0.8843	0.733
Mof_C 	C 	0.0211	0.3784	0.9444	-0.5
Mof_C 	C 	0.0329	0.264	0.9764	-0.077
Mof_H 	H 	0.0647	0.265	0.0023	1.226
Mof_C 	C 	0.059	0.4947	0.9528	0.237
Mof_H 	H 	0.0911	0.4836	0.9781	-0.046
Mof_C 	C 	0.0946	0.7249	0.947	0.209
Mof_C 	C 	0.139	0.7098	0.9883	-0.091
Mof_H 	H 	0.1437	0.6261	0.0059	0.078
Mof_C 	C 	0.1763	0.8198	0.0033	-0.071
Mof_H 	H 	0.2059	0.8097	0.0309	0.008
Mof_N 	N 	0.1692	0.9449	0.977	-0.113
Mof_C 	C 	0.1248	0.96	0.9357	0.177
Mof_H 	H 	0.1201	0.0437	0.9181	-0.03
Mof_C 	C 	0.0875	0.85	0.9207	-0.261
Mof_H 	H 	0.0578	0.8601	0.8931	0.108
Mof_C 	C 	0.055	0.611	0.9306	-0.31
Mof_H 	H 	0.0258	0.6245	0.9029	0.117
Mof_O 	O 	0.2746	0.0714	0.05154	-0.504
Mof_O 	O 	0.3272	0.2597	0.06854	-0.504
Mof_O 	O 	0.4307	0.8956	0.25805	-0.334
Mof_O 	O 	0.2785	0.9015	0.44268	-0.49
Mof_O 	O 	0.3324	0.7138	0.46024	-0.521
Mof_C 	C 	0.3124	0.1403	0.0773	0.492
Mof_C 	C 	0.3436	0.0739	0.1263	-0.305
Mof_C 	C 	0.3247	0.9537	0.143	0.295
Mof_H 	H 	0.2921	0.9116	0.1244	-0.051
Mof_C 	C 	0.3514	0.8916	0.1862	-0.399
Mof_H 	H 	0.3375	0.8078	0.1972	0.181
Mof_C 	C 	0.4	0.9548	0.2142	0.389
Mof_C 	C 	0.4203	0.0769	0.1981	-0.382
Mof_H 	H 	0.453	0.1188	0.2165	0.19
Mof_C 	C 	0.3919	0.1377	0.1543	0.265
Mof_H 	H 	0.405	0.2222	0.1433	-0.046
Mof_C 	C 	0.4019	0.8824	0.3009	0.384
Mof_C 	C 	0.3556	0.9664	0.3097	-0.35
Mof_H 	H 	0.3422	0.0354	0.2863	0.182
Mof_C 	C 	0.33	0.9464	0.3533	0.269
Mof_H 	H 	0.2988	0.0024	0.3593	-0.04
Mof_C 	C 	0.3495	0.8446	0.3888	-0.295
Mof_C 	C 	0.3949	0.7629	0.3801	0.234
Mof_H 	H 	0.4079	0.6938	0.4037	-0.05
Mof_C 	C 	0.4225	0.7815	0.3359	-0.342
Mof_H 	H 	0.4541	0.7265	0.3302	0.165
Mof_C 	C 	0.3185	0.8201	0.4346	0.453
Mof_N 	N 	0.989	0.0071	0.9774	0.091
Mof_C 	C 	0.9812	0.1353	0.9499	-0.328
Mof_C 	C 	0.936	0.139	0.9089	0.595
Mof_H 	H 	0.913	0.0611	0.9007	-0.084
Mof_C 	C 	0.9253	0.2592	0.88	0.027
Mof_H 	H 	0.8951	0.2617	0.8525	-0.706
Mof_C 	C 	0.9598	0.3757	0.8921	0.105
Mof_H 	H 	0.9526	0.4562	0.8727	-0.79
Mof_C 	C 	0.005	0.372	0.9331	-0.381
Mof_C 	C 	0.0157	0.2518	0.962	1.791
Mof_H 	H 	0.0459	0.2492	0.9894	-1.641
Mof_C 	C 	0.0413	0.4976	0.9454	0.174
Mof_H 	H 	0.024	0.5671	0.9239	-0
Mof_C 	C 	0.1155	0.6889	0.9732	-0.008
Mof_C 	C 	0.1646	0.714	0.0091	-0.006
Mof_H 	H 	0.1787	0.6454	0.0325	0.024
Mof_C 	C 	0.1925	0.8415	0.0101	0.101
Mof_H 	H 	0.2254	0.8583	0.0341	-0.007
Mof_N 	N 	0.1714	0.944	0.9752	-0.104
Mof_C 	C 	0.1223	0.919	0.9393	-0.041
Mof_H 	H 	0.1081	0.9876	0.9159	-0.001
Mof_C 	C 	0.0943	0.7914	0.9383	0.003
Mof_H 	H 	0.0614	0.7747	0.9143	0.065
Mof_C 	C 	0.0862	0.5531	0.9726	-0.216
Mof_H 	H 	0.1044	0.4934	0.9977	0.088
Mof_Zn	Zn	0.71504	0.62173	0.98905	1.217
Mof_N 	N 	0.5157	0.5463	0.0048	-0.029
Mof_C 	C 	0.497	0.6481	0.9695	-0.45
Mof_C 	C 	0.4493	0.6465	0.9307	0.24
Mof_H 	H 	0.4253	0.569	0.9261	-0.186
Mof_C 	C 	0.4376	0.7609	0.8988	-1.281
Mof_H 	H 	0.4057	0.7599	0.8728	1.096
Mof_C 	C 	0.4735	0.8769	0.9056	0.362
Mof_H 	H 	0.4656	0.9534	0.8843	0.722
Mof_C 	C 	0.5211	0.8784	0.9444	-0.494
Mof_C 	C 	0.5329	0.764	0.9764	-0.077
Mof_H 	H 	0.5647	0.765	0.0023	1.212
Mof_C 	C 	0.559	0.9947	0.9528	0.235
Mof_H 	H 	0.5911	0.9836	0.9781	-0.038
Mof_C 	C 	0.5946	0.2249	0.947	0.211
Mof_C 	C 	0.639	0.2098	0.9883	-0.088
Mof_H 	H 	0.6437	0.1261	0.0059	0.081
Mof_C 	C 	0.6763	0.3198	0.0033	-0.069
Mof_H 	H 	0.7059	0.3097	0.0309	0.007
Mof_N 	N 	0.6692	0.4449	0.977	-0.114
Mof_C 	C 	0.6248	0.46	0.9357	0.177
Mof_H 	H 	0.6201	0.5437	0.9181	-0.029
Mof_C 	C 	0.5875	0.35	0.9207	-0.264
Mof_H 	H 	0.5578	0.3601	0.8931	0.109
Mof_C 	C 	0.555	0.111	0.9306	-0.305
Mof_H 	H 	0.5258	0.1245	0.9029	0.115
Mof_O 	O 	0.7746	0.5714	0.05154	-0.504
Mof_O 	O 	0.8272	0.7597	0.06854	-0.504
Mof_O 	O 	0.9307	0.3956	0.25805	-0.334
Mof_O 	O 	0.7785	0.4015	0.44268	-0.49
Mof_O 	O 	0.8324	0.2138	0.46024	-0.521
Mof_C 	C 	0.8124	0.6403	0.0773	0.493
Mof_C 	C 	0.8436	0.5739	0.1263	-0.307
Mof_C 	C 	0.8247	0.4537	0.143	0.298
Mof_H 	H 	0.7921	0.4116	0.1244	-0.052
Mof_C 	C 	0.8514	0.3916	0.1862	-0.401
Mof_H 	H 	0.8375	0.3078	0.1972	0.181
Mof_C 	C 	0.9	0.4548	0.2142	0.391
Mof_C 	C 	0.9203	0.5769	0.1981	-0.384
Mof_H 	H 	0.953	0.6188	0.2165	0.192
Mof_C 	C 	0.8919	0.6377	0.1543	0.267
Mof_H 	H 	0.905	0.7222	0.1433	-0.047
Mof_C 	C 	0.9019	0.3824	0.3009	0.384
Mof_C 	C 	0.8556	0.4664	0.3097	-0.35
Mof_H 	H 	0.8422	0.5354	0.2863	0.182
Mof_C 	C 	0.83	0.4464	0.3533	0.269
Mof_H 	H 	0.7988	0.5024	0.3593	-0.041
Mof_C 	C 	0.8495	0.3446	0.3888	-0.295
Mof_C 	C 	0.8949	0.2629	0.3801	0.234
Mof_H 	H 	0.9079	0.1938	0.4037	-0.05
Mof_C 	C 	0.9225	0.2815	0.3359	-0.342
Mof_H 	H 	0.9541	0.2265	0.3302	0.165
Mof_C 	C 	0.8185	0.3201	0.4346	0.453
Mof_N 	N 	0.489	0.5071	0.9774	0.09
Mof_C 	C 	0.4812	0.6353	0.9499	-0.321
Mof_C 	C 	0.436	0.639	0.9089	0.584
Mof_H 	H 	0.413	0.5611	0.9007	-0.082
Mof_C 	C 	0.4253	0.7592	0.88	0.028
Mof_H 	H 	0.3951	0.7617	0.8525	-0.695
Mof_C 	C 	0.4598	0.8757	0.8921	0.107
Mof_H 	H 	0.4526	0.9562	0.8727	-0.777
Mof_C 	C 	0.505	0.872	0.9331	-0.376
Mof_C 	C 	0.5157	0.7518	0.962	1.767
Mof_H 	H 	0.5459	0.7492	0.9894	-1.622
Mof_C 	C 	0.5413	0.9976	0.9454	0.172
Mof_H 	H 	0.524	0.0671	0.9239	-0
Mof_C 	C 	0.6155	0.1889	0.9732	-0.013
Mof_C 	C 	0.6646	0.214	0.0091	-0.009
Mof_H 	H 	0.6787	0.1454	0.0325	0.024
Mof_C 	C 	0.6925	0.3415	0.0101	0.103
Mof_H 	H 	0.7254	0.3583	0.0341	-0.007
Mof_N 	N 	0.6714	0.444	0.9752	-0.105
Mof_C 	C 	0.6223	0.419	0.9393	-0.041
Mof_H 	H 	0.6081	0.4876	0.9159	-0.002
Mof_C 	C 	0.5943	0.2914	0.9383	0.004
Mof_H 	H 	0.5614	0.2747	0.9143	0.064
Mof_C 	C 	0.5862	0.0531	0.9726	-0.222
Mof_H 	H 	0.6044	0.9934	0.9977	0.085
Mof_Zn	Zn	0.78496	0.12173	0.51095	1.217
Mof_N 	N 	0.9843	0.0463	0.4952	-0.03
Mof_C 	C 	0.003	0.1481	0.5305	-0.45
Mof_C 	C 	0.0507	0.1465	0.5693	0.24
Mof_H 	H 	0.0747	0.069	0.5739	-0.186
Mof_C 	C 	0.0624	0.2609	0.6012	-1.281
Mof_H 	H 	0.0943	0.2599	0.6272	1.095
Mof_C 	C 	0.0265	0.3769	0.5944	0.362
Mof_H 	H 	0.0344	0.4534	0.6157	0.721
Mof_C 	C 	0.9789	0.3784	0.5556	-0.494
Mof_C 	C 	0.9671	0.264	0.5236	-0.077
Mof_H 	H 	0.9353	0.265	0.4977	1.212
Mof_C 	C 	0.941	0.4947	0.5472	0.234
Mof_H 	H 	0.9089	0.4836	0.5219	-0.04
Mof_C 	C 	0.9054	0.7249	0.553	0.209
Mof_C 	C 	0.861	0.7098	0.5117	-0.089
Mof_H 	H 	0.8563	0.6261	0.4941	0.08
Mof_C 	C 	0.8237	0.8198	0.4967	-0.07
Mof_H 	H 	0.7941	0.8097	0.4691	0.007
Mof_N 	N 	0.8308	0.9449	0.523	-0.113
Mof_C 	C 	0.8752	0.96	0.5643	0.176
Mof_H 	H 	0.8799	0.0437	0.5819	-0.029
Mof_C 	C 	0.9125	0.85	0.5793	-0.261
Mof_H 	H 	0.9422	0.8601	0.6069	0.108
Mof_C 	C 	0.945	0.611	0.5694	-0.305
Mof_H 	H 	0.9742	0.6245	0.5971	0.115
Mof_O 	O 	0.7254	0.0714	0.44846	-0.505
Mof_O 	O 	0.6728	0.2597	0.43146	-0.504
Mof_O 	O 	0.5693	0.8956	0.24195	-0.334
Mof_O 	O 	0.7215	0.9015	0.05732	-0.49
Mof_O 	O 	0.6676	0.7138	0.03976	-0.521
Mof_C 	C 	0.6876	0.1403	0.4227	0.493
Mof_C 	C 	0.6564	0.0739	0.3737	-0.305
Mof_C 	C 	0.6753	0.9537	0.357	0.296
Mof_H 	H 	0.7079	0.9116	0.3756	-0.052
Mof_C 	C 	0.6486	0.8916	0.3138	-0.4
Mof_H 	H 	0.6625	0.8078	0.3028	0.181
Mof_C 	C 	0.6	0.9548	0.2858	0.389
Mof_C 	C 	0.5797	0.0769	0.3019	-0.382
Mof_H 	H 	0.547	0.1188	0.2835	0.191
Mof_C 	C 	0.6081	0.1377	0.3457	0.266
Mof_H 	H 	0.595	0.2222	0.3567	-0.046
Mof_C 	C 	0.5981	0.8824	0.1991	0.384
Mof_C 	C 	0.6444	0.9664	0.1903	-0.35
Mof_H 	H 	0.6578	0.0354	0.2137	0.182
Mof_C 	C 	0.67	0.9464	0.1467	0.268
Mof_H 	H 	0.7012	0.0024	0.1407	-0.04
Mof_C 	C 	0.6505	0.8446	0.1112	-0.295
Mof_C 	C 	0.6051	0.7629	0.1199	0.234
Mof_H 	H 	0.5921	0.6938	0.0963	-0.05
Mof_C 	C 	0.5775	0.7815	0.1641	-0.342
Mof_H 	H 	0.5459	0.7265	0.1698	0.165
Mof_C 	C 	0.6815	0.8201	0.0654	0.452
Mof_N 	N 	0.011	0.0071	0.5226	0.09
Mof_C 	C 	0.0188	0.1353	0.5501	-0.32
Mof_C 	C 	0.064	0.139	0.5911	0.583
Mof_H 	H 	0.087	0.0611	0.5993	-0.082
Mof_C 	C 	0.0747	0.2592	0.62	0.028
Mof_H 	H 	0.1049	0.2617	0.6475	-0.695
Mof_C 	C 	0.0402	0.3757	0.6079	0.106
Mof_H 	H 	0.0474	0.4562	0.6273	-0.777
Mof_C 	C 	0.995	0.372	0.5669	-0.375
Mof_C 	C 	0.9843	0.2518	0.538	1.766
Mof_H 	H 	0.9541	0.2492	0.5106	-1.621
Mof_C 	C 	0.9587	0.4976	0.5546	0.171
Mof_H 	H 	0.976	0.5671	0.5761	0.001
Mof_C 	C 	0.8845	0.6889	0.5268	-0.01
Mof_C 	C 	0.8354	0.714	0.4909	-0.009
Mof_H 	H 	0.8213	0.6454	0.4675	0.024
Mof_C 	C 	0.8075	0.8415	0.4899	0.102
Mof_H 	H 	0.7746	0.8583	0.4659	-0.007
Mof_N 	N 	0.8286	0.944	0.5248	-0.104
Mof_C 	C 	0.8777	0.919	0.5607	-0.041
Mof_H 	H 	0.8919	0.9876	0.5841	-0.002
Mof_C 	C 	0.9057	0.7914	0.5617	0.003
Mof_H 	H 	0.9386	0.7747	0.5857	0.065
Mof_C 	C 	0.9138	0.5531	0.5274	-0.219
Mof_H 	H 	0.8956	0.4934	0.5023	0.084
Mof_Zn	Zn	0.28496	0.62173	0.51095	1.217
Mof_N 	N 	0.4843	0.5463	0.4952	-0.03
Mof_C 	C 	0.503	0.6481	0.5305	-0.45
Mof_C 	C 	0.5507	0.6465	0.5693	0.24
Mof_H 	H 	0.5747	0.569	0.5739	-0.186
Mof_C 	C 	0.5624	0.7609	0.6012	-1.281
Mof_H 	H 	0.5943	0.7599	0.6272	1.095
Mof_C 	C 	0.5265	0.8769	0.5944	0.362
Mof_H 	H 	0.5344	0.9534	0.6157	0.721
Mof_C 	C 	0.4789	0.8784	0.5556	-0.494
Mof_C 	C 	0.4671	0.764	0.5236	-0.077
Mof_H 	H 	0.4353	0.765	0.4977	1.212
Mof_C 	C 	0.441	0.9947	0.5472	0.234
Mof_H 	H 	0.4089	0.9836	0.5219	-0.04
Mof_C 	C 	0.4054	0.2249	0.553	0.209
Mof_C 	C 	0.361	0.2098	0.5117	-0.089
Mof_H 	H 	0.3563	0.1261	0.4941	0.08
Mof_C 	C 	0.3237	0.3198	0.4967	-0.07
Mof_H 	H 	0.2941	0.3097	0.4691	0.007
Mof_N 	N 	0.3308	0.4449	0.523	-0.113
Mof_C 	C 	0.3752	0.46	0.5643	0.177
Mof_H 	H 	0.3799	0.5437	0.5819	-0.029
Mof_C 	C 	0.4125	0.35	0.5793	-0.261
Mof_H 	H 	0.4422	0.3601	0.6069	0.108
Mof_C 	C 	0.445	0.111	0.5694	-0.306
Mof_H 	H 	0.4742	0.1245	0.5971	0.115
Mof_O 	O 	0.2254	0.5714	0.44846	-0.505
Mof_O 	O 	0.1728	0.7597	0.43146	-0.504
Mof_O 	O 	0.0693	0.3956	0.24195	-0.334
Mof_O 	O 	0.2215	0.4015	0.05732	-0.49
Mof_O 	O 	0.1676	0.2138	0.03976	-0.522
Mof_C 	C 	0.1876	0.6403	0.4227	0.493
Mof_C 	C 	0.1564	0.5739	0.3737	-0.307
Mof_C 	C 	0.1753	0.4537	0.357	0.298
Mof_H 	H 	0.2079	0.4116	0.3756	-0.052
Mof_C 	C 	0.1486	0.3916	0.3138	-0.401
Mof_H 	H 	0.1625	0.3078	0.3028	0.181
Mof_C 	C 	0.1	0.4548	0.2858	0.391
Mof_C 	C 	0.0797	0.5769	0.3019	-0.384
Mof_H 	H 	0.047	0.6188	0.2835	0.191
Mof_C 	C 	0.1081	0.6377	0.3457	0.267
Mof_H 	H 	0.095	0.7222	0.3567	-0.047
Mof_C 	C 	0.0981	0.3824	0.1991	0.385
Mof_C 	C 	0.1444	0.4664	0.1903	-0.349
Mof_H 	H 	0.1578	0.5354	0.2137	0.182
Mof_C 	C 	0.17	0.4464	0.1467	0.27
Mof_H 	H 	0.2012	0.5024	0.1407	-0.041
Mof_C 	C 	0.1505	0.3446	0.1112	-0.295
Mof_C 	C 	0.1051	0.2629	0.1199	0.234
Mof_H 	H 	0.0921	0.1938	0.0963	-0.05
Mof_C 	C 	0.0775	0.2815	0.1641	-0.342
Mof_H 	H 	0.0459	0.2265	0.1698	0.165
Mof_C 	C 	0.1815	0.3201	0.0654	0.452
Mof_N 	N 	0.511	0.5071	0.5226	0.09
Mof_C 	C 	0.5188	0.6353	0.5501	-0.321
Mof_C 	C 	0.564	0.639	0.5911	0.584
Mof_H 	H 	0.587	0.5611	0.5993	-0.082
Mof_C 	C 	0.5747	0.7592	0.62	0.028
Mof_H 	H 	0.6049	0.7617	0.6475	-0.695
Mof_C 	C 	0.5402	0.8757	0.6079	0.106
Mof_H 	H 	0.5474	0.9562	0.6273	-0.777
Mof_C 	C 	0.495	0.872	0.5669	-0.376
Mof_C 	C 	0.4843	0.7518	0.538	1.767
Mof_H 	H 	0.4541	0.7492	0.5106	-1.621
Mof_C 	C 	0.4587	0.9976	0.5546	0.171
Mof_H 	H 	0.476	0.0671	0.5761	0
Mof_C 	C 	0.3845	0.1889	0.5268	-0.01
Mof_C 	C 	0.3354	0.214	0.4909	-0.009
Mof_H 	H 	0.3213	0.1454	0.4675	0.024
Mof_C 	C 	0.3075	0.3415	0.4899	0.102
Mof_H 	H 	0.2746	0.3583	0.4659	-0.007
Mof_N 	N 	0.3286	0.444	0.5248	-0.105
Mof_C 	C 	0.3777	0.419	0.5607	-0.041
Mof_H 	H 	0.3919	0.4876	0.5841	-0.002
Mof_C 	C 	0.4057	0.2914	0.5617	0.003
Mof_H 	H 	0.4386	0.2747	0.5857	0.065
Mof_C 	C 	0.4138	0.0531	0.5274	-0.219
Mof_H 	H 	0.3956	0.9934	0.5023	0.084
Mof_Zn	Zn	0.78496	0.87827	0.01095	1.217
Mof_N 	N 	0.9843	0.9537	0.9952	-0.028
Mof_C 	C 	0.003	0.8519	0.0305	-0.456
Mof_C 	C 	0.0507	0.8535	0.0693	0.244
Mof_H 	H 	0.0747	0.931	0.0739	-0.19
Mof_C 	C 	0.0624	0.7391	0.1012	-1.299
Mof_H 	H 	0.0943	0.7401	0.1272	1.112
Mof_C 	C 	0.0265	0.6231	0.0944	0.369
Mof_H 	H 	0.0344	0.5466	0.1157	0.733
Mof_C 	C 	0.9789	0.6216	0.0556	-0.5
Mof_C 	C 	0.9671	0.736	0.0236	-0.077
Mof_H 	H 	0.9353	0.735	0.9977	1.226
Mof_C 	C 	0.941	0.5053	0.0472	0.237
Mof_H 	H 	0.9089	0.5164	0.0219	-0.046
Mof_C 	C 	0.9054	0.2751	0.053	0.209
Mof_C 	C 	0.861	0.2902	0.0117	-0.091
Mof_H 	H 	0.8563	0.3739	0.9941	0.078
Mof_C 	C 	0.8237	0.1802	0.9967	-0.071
Mof_H 	H 	0.7941	0.1903	0.9691	0.008
Mof_N 	N 	0.8308	0.0551	0.023	-0.113
Mof_C 	C 	0.8752	0.04	0.0643	0.177
Mof_H 	H 	0.8799	0.9563	0.0819	-0.03
Mof_C 	C 	0.9125	0.15	0.0793	-0.261
Mof_H 	H 	0.9422	0.1399	0.1069	0.108
Mof_C 	C 	0.945	0.389	0.0694	-0.31
Mof_H 	H 	0.9742	0.3755	0.0971	0.117
Mof_O 	O 	0.7254	0.9286	0.94846	-0.504
Mof_O 	O 	0.6728	0.7403	0.93146	-0.504
Mof_O 	O 	0.5693	0.1044	0.74195	-0.334
Mof_O 	O 	0.7215	0.0985	0.55732	-0.49
Mof_O 	O 	0.6676	0.2862	0.53976	-0.521
Mof_C 	C 	0.6876	0.8597	0.9227	0.492
Mof_C 	C 	0.6564	0.9261	0.8737	-0.305
Mof_C 	C 	0.6753	0.0463	0.857	0.295
Mof_H 	H 	0.7079	0.0884	0.8756	-0.051
Mof_C 	C 	0.6486	0.1084	0.8138	-0.399
Mof_H 	H 	0.6625	0.1922	0.8028	0.181
Mof_C 	C 	0.6	0.0452	0.7858	0.389
Mof_C 	C 	0.5797	0.9231	0.8019	-0.382
Mof_H 	H 	0.547	0.8812	0.7835	0.19
Mof_C 	C 	0.6081	0.8623	0.8457	0.265
Mof_H 	H 	0.595	0.7778	0.8567	-0.046
Mof_C 	C 	0.5981	0.1176	0.6991	0.384
Mof_C 	C 	0.6444	0.0336	0.6903	-0.35
Mof_H 	H 	0.6578	0.9646	0.7137	0.182
Mof_C 	C 	0.67	0.0536	0.6467	0.269
Mof_H 	H 	0.7012	0.9976	0.6407	-0.04
Mof_C 	C 	0.6505	0.1554	0.6112	-0.295
Mof_C 	C 	0.6051	0.2371	0.6199	0.234
Mof_H 	H 	0.5921	0.3062	0.5963	-0.05
Mof_C 	C 	0.5775	0.2185	0.6641	-0.342
Mof_H 	H 	0.5459	0.2735	0.6698	0.165
Mof_C 	C 	0.6815	0.1799	0.5654	0.453
Mof_N 	N 	0.011	0.9929	0.0226	0.091
Mof_C 	C 	0.0188	0.8647	0.0501	-0.328
Mof_C 	C 	0.064	0.861	0.0911	0.595
Mof_H 	H 	0.087	0.9389	0.0993	-0.084
Mof_C 	C 	0.0747	0.7408	0.12	0.027
Mof_H 	H 	0.1049	0.7383	0.1475	-0.706
Mof_C 	C 	0.0402	0.6243	0.1079	0.105
Mof_H 	H 	0.0474	0.5438	0.1273	-0.79
Mof_C 	C 	0.995	0.628	0.0669	-0.381
Mof_C 	C 	0.9843	0.7482	0.038	1.791
Mof_H 	H 	0.9541	0.7508	0.0106	-1.641
Mof_C 	C 	0.9587	0.5024	0.0546	0.174
Mof_H 	H 	0.976	0.4329	0.0761	-0
Mof_C 	C 	0.8845	0.3111	0.0268	-0.008
Mof_C 	C 	0.8354	0.286	0.9909	-0.006
Mof_H 	H 	0.8213	0.3546	0.9675	0.024
Mof_C 	C 	0.8075	0.1585	0.9899	0.101
Mof_H 	H 	0.7746	0.1417	0.9659	-0.007
Mof_N 	N 	0.8286	0.056	0.0248	-0.104
Mof_C 	C 	0.8777	0.081	0.0607	-0.041
Mof_H 	H 	0.8919	0.0124	0.0841	-0.001
Mof_C 	C 	0.9057	0.2086	0.0617	0.003
Mof_H 	H 	0.9386	0.2253	0.0857	0.065
Mof_C 	C 	0.9138	0.4469	0.0274	-0.216
Mof_H 	H 	0.8956	0.5066	0.0023	0.088
Mof_Zn	Zn	0.28496	0.37827	0.01095	1.217
Mof_N 	N 	0.4843	0.4537	0.9952	-0.029
Mof_C 	C 	0.503	0.3519	0.0305	-0.45
Mof_C 	C 	0.5507	0.3535	0.0693	0.24
Mof_H 	H 	0.5747	0.431	0.0739	-0.186
Mof_C 	C 	0.5624	0.2391	0.1012	-1.281
Mof_H 	H 	0.5943	0.2401	0.1272	1.096
Mof_C 	C 	0.5265	0.1231	0.0944	0.362
Mof_H 	H 	0.5344	0.0466	0.1157	0.722
Mof_C 	C 	0.4789	0.1216	0.0556	-0.494
Mof_C 	C 	0.4671	0.236	0.0236	-0.077
Mof_H 	H 	0.4353	0.235	0.9977	1.212
Mof_C 	C 	0.441	0.0053	0.0472	0.235
Mof_H 	H 	0.4089	0.0164	0.0219	-0.038
Mof_C 	C 	0.4054	0.7751	0.053	0.211
Mof_C 	C 	0.361	0.7902	0.0117	-0.088
Mof_H 	H 	0.3563	0.8739	0.9941	0.081
Mof_C 	C 	0.3237	0.6802	0.9967	-0.069
Mof_H 	H 	0.2941	0.6903	0.9691	0.007
Mof_N 	N 	0.3308	0.5551	0.023	-0.114
Mof_C 	C 	0.3752	0.54	0.0643	0.177
Mof_H 	H 	0.3799	0.4563	0.0819	-0.029
Mof_C 	C 	0.4125	0.65	0.0793	-0.264
Mof_H 	H 	0.4422	0.6399	0.1069	0.109
Mof_C 	C 	0.445	0.889	0.0694	-0.305
Mof_H 	H 	0.4742	0.8755	0.0971	0.115
Mof_O 	O 	0.2254	0.4286	0.94846	-0.504
Mof_O 	O 	0.1728	0.2403	0.93146	-0.504
Mof_O 	O 	0.0693	0.6044	0.74195	-0.334
Mof_O 	O 	0.2215	0.5985	0.55732	-0.49
Mof_O 	O 	0.1676	0.7862	0.53976	-0.521
Mof_C 	C 	0.1876	0.3597	0.9227	0.493
Mof_C 	C 	0.1564	0.4261	0.8737	-0.307
Mof_C 	C 	0.1753	0.5463	0.857	0.298
Mof_H 	H 	0.2079	0.5884	0.8756	-0.052
Mof_C 	C 	0.1486	0.6084	0.8138	-0.401
Mof_H 	H 	0.1625	0.6922	0.8028	0.181
Mof_C 	C 	0.1	0.5452	0.7858	0.391
Mof_C 	C 	0.0797	0.4231	0.8019	-0.384
Mof_H 	H 	0.047	0.3812	0.7835	0.192
Mof_C 	C 	0.1081	0.3623	0.8457	0.267
Mof_H 	H 	0.095	0.2778	0.8567	-0.047
Mof_C 	C 	0.0981	0.6176	0.6991	0.384
Mof_C 	C 	0.1444	0.5336	0.6903	-0.35
Mof_H 	H 	0.1578	0.4646	0.7137	0.182
Mof_C 	C 	0.17	0.5536	0.6467	0.269
Mof_H 	H 	0.2012	0.4976	0.6407	-0.041
Mof_C 	C 	0.1505	0.6554	0.6112	-0.295
Mof_C 	C 	0.1051	0.7371	0.6199	0.234
Mof_H 	H 	0.0921	0.8062	0.5963	-0.05
Mof_C 	C 	0.0775	0.7185	0.6641	-0.342
Mof_H 	H 	0.0459	0.7735	0.6698	0.165
Mof_C 	C 	0.1815	0.6799	0.5654	0.453
Mof_N 	N 	0.511	0.4929	0.0226	0.09
Mof_C 	C 	0.5188	0.3647	0.0501	-0.321
Mof_C 	C 	0.564	0.361	0.0911	0.584
Mof_H 	H 	0.587	0.4389	0.0993	-0.082
Mof_C 	C 	0.5747	0.2408	0.12	0.028
Mof_H 	H 	0.6049	0.2383	0.1475	-0.695
Mof_C 	C 	0.5402	0.1243	0.1079	0.107
Mof_H 	H 	0.5474	0.0438	0.1273	-0.777
Mof_C 	C 	0.495	0.128	0.0669	-0.376
Mof_C 	C 	0.4843	0.2482	0.038	1.767
Mof_H 	H 	0.4541	0.2508	0.0106	-1.622
Mof_C 	C 	0.4587	0.0024	0.0546	0.172
Mof_H 	H 	0.476	0.9329	0.0761	-0
Mof_C 	C 	0.3845	0.8111	0.0268	-0.013
Mof_C 	C 	0.3354	0.786	0.9909	-0.009
Mof_H 	H 	0.3213	0.8546	0.9675	0.024
Mof_C 	C 	0.3075	0.6585	0.9899	0.103
Mof_H 	H 	0.2746	0.6417	0.9659	-0.007
Mof_N 	N 	0.3286	0.556	0.0248	-0.105
Mof_C 	C 	0.3777	0.581	0.0607	-0.041
Mof_H 	H 	0.3919	0.5124	0.0841	-0.002
Mof_C 	C 	0.4057	0.7086	0.0617	0.004
Mof_H 	H 	0.4386	0.7253	0.0857	0.064
Mof_C 	C 	0.4138	0.9469	0.0274	-0.222
Mof_H 	H 	0.3956	0.0066	0.0023	0.085
Mof_Zn	Zn	0.21504	0.87827	0.48905	1.217
Mof_N 	N 	0.0157	0.9537	0.5048	-0.03
Mof_C 	C 	0.997	0.8519	0.4695	-0.45
Mof_C 	C 	0.9493	0.8535	0.4307	0.24
Mof_H 	H 	0.9253	0.931	0.4261	-0.186
Mof_C 	C 	0.9376	0.7391	0.3988	-1.281
Mof_H 	H 	0.9057	0.7401	0.3728	1.095
Mof_C 	C 	0.9735	0.6231	0.4056	0.362
Mof_H 	H 	0.9656	0.5466	0.3843	0.721
Mof_C 	C 	0.0211	0.6216	0.4444	-0.494
Mof_C 	C 	0.0329	0.736	0.4764	-0.077
Mof_H 	H 	0.0647	0.735	0.5023	1.212
Mof_C 	C 	0.059	0.5053	0.4528	0.234
Mof_H 	H 	0.0911	0.5164	0.4781	-0.04
Mof_C 	C 	0.0946	0.2751	0.447	0.209
Mof_C 	C 	0.139	0.2902	0.4883	-0.089
Mof_H 	H 	0.1437	0.3739	0.5059	0.08
Mof_C 	C 	0.1763	0.1802	0.5033	-0.07
Mof_H 	H 	0.2059	0.1903	0.5309	0.007
Mof_N 	N 	0.1692	0.0551	0.477	-0.113
Mof_C 	C 	0.1248	0.04	0.4357	0.176
Mof_H 	H 	0.1201	0.9563	0.4181	-0.029
Mof_C 	C 	0.0875	0.15	0.4207	-0.261
Mof_H 	H 	0.0578	0.1399	0.3931	0.108
Mof_C 	C 	0.055	0.389	0.4306	-0.305
Mof_H 	H 	0.0258	0.3755	0.4029	0.115
Mof_O 	O 	0.2746	0.9286	0.55154	-0.505
Mof_O 	O 	0.3272	0.7403	0.56854	-0.504
Mof_O 	O 	0.4307	0.1044	0.75805	-0.334
Mof_O 	O 	0.2785	0.0985	0.94268	-0.49
Mof_O 	O 	0.3324	0.2862	0.96024	-0.521
Mof_C 	C 	0.3124	0.8597	0.5773	0.493
Mof_C 	C 	0.3436	0.9261	0.6263	-0.305
Mof_C 	C 	0.3247	0.0463	0.643	0.296
Mof_H 	H 	0.2921	0.0884	0.6244	-0.052
Mof_C 	C 	0.3514	0.1084	0.6862	-0.4
Mof_H 	H 	0.3375	0.1922	0.6972	0.181
Mof_C 	C 	0.4	0.0452	0.7142	0.389
Mof_C 	C 	0.4203	0.9231	0.6981	-0.382
Mof_H 	H 	0.453	0.8812	0.7165	0.191
Mof_C 	C 	0.3919	0.8623	0.6543	0.266
Mof_H 	H 	0.405	0.7778	0.6433	-0.046
Mof_C 	C 	0.4019	0.1176	0.8009	0.384
Mof_C 	C 	0.3556	0.0336	0.8097	-0.35
Mof_H 	H 	0.3422	0.9646	0.7863	0.182
Mof_C 	C 	0.33	0.0536	0.8533	0.268
Mof_H 	H 	0.2988	0.9976	0.8593	-0.04
Mof_C 	C 	0.3495	0.1554	0.8888	-0.295
Mof_C 	C 	0.3949	0.2371	0.8801	0.234
Mof_H 	H 	0.4079	0.3062	0.9037	-0.05
Mof_C 	C 	0.4225	0.2185	0.8359	-0.342
Mof_H 	H 	0.4541	0.2735	0.8302	0.165
Mof_C 	C 	0.3185	0.1799	0.9346	0.452
Mof_N 	N 	0.989	0.9929	0.4774	0.09
Mof_C 	C 	0.9812	0.8647	0.4499	-0.32
Mof_C 	C 	0.936	0.861	0.4089	0.583
Mof_H 	H 	0.913	0.9389	0.4007	-0.082
Mof_C 	C 	0.9253	0.7408	0.38	0.028
Mof_H 	H 	0.8951	0.7383	0.3525	-0.695
Mof_C 	C 	0.9598	0.6243	0.3921	0.106
Mof_H 	H 	0.9526	0.5438	0.3727	-0.777
Mof_C 	C 	0.005	0.628	0.4331	-0.375
Mof_C 	C 	0.0157	0.7482	0.462	1.766
Mof_H 	H 	0.0459	0.7508	0.4894	-1.621
Mof_C 	C 	0.0413	0.5024	0.4454	0.171
Mof_H 	H 	0.024	0.4329	0.4239	0.001
Mof_C 	C 	0.1155	0.3111	0.4732	-0.01
Mof_C 	C 	0.1646	0.286	0.5091	-0.009
Mof_H 	H 	0.1787	0.3546	0.5325	0.024
Mof_C 	C 	0.1925	0.1585	0.5101	0.102
Mof_H 	H 	0.2254	0.1417	0.5341	-0.007
Mof_N 	N 	0.1714	0.056	0.4752	-0.104
Mof_C 	C 	0.1223	0.081	0.4393	-0.041
Mof_H 	H 	0.1081	0.0124	0.4159	-0.002
Mof_C 	C 	0.0943	0.2086	0.4383	0.003
Mof_H 	H 	0.0614	0.2253	0.4143	0.065
Mof_C 	C 	0.0862	0.4469	0.4726	-0.219
Mof_H 	H 	0.1044	0.5066	0.4977	0.084
Mof_Zn	Zn	0.71504	0.37827	0.48905	1.217
Mof_N 	N 	0.5157	0.4537	0.5048	-0.03
Mof_C 	C 	0.497	0.3519	0.4695	-0.45
Mof_C 	C 	0.4493	0.3535	0.4307	0.24
Mof_H 	H 	0.4253	0.431	0.4261	-0.186
Mof_C 	C 	0.4376	0.2391	0.3988	-1.281
Mof_H 	H 	0.4057	0.2401	0.3728	1.095
Mof_C 	C 	0.4735	0.1231	0.4056	0.362
Mof_H 	H 	0.4656	0.0466	0.3843	0.721
Mof_C 	C 	0.5211	0.1216	0.4444	-0.494
Mof_C 	C 	0.5329	0.236	0.4764	-0.077
Mof_H 	H 	0.5647	0.235	0.5023	1.212
Mof_C 	C 	0.559	0.0053	0.4528	0.234
Mof_H 	H 	0.5911	0.0164	0.4781	-0.04
Mof_C 	C 	0.5946	0.7751	0.447	0.209
Mof_C 	C 	0.639	0.7902	0.4883	-0.089
Mof_H 	H 	0.6437	0.8739	0.5059	0.08
Mof_C 	C 	0.6763	0.6802	0.5033	-0.07
Mof_H 	H 	0.7059	0.6903	0.5309	0.007
Mof_N 	N 	0.6692	0.5551	0.477	-0.113
Mof_C 	C 	0.6248	0.54	0.4357	0.177
Mof_H 	H 	0.6201	0.4563	0.4181	-0.029
Mof_C 	C 	0.5875	0.65	0.4207	-0.261
Mof_H 	H 	0.5578	0.6399	0.3931	0.108
Mof_C 	C 	0.555	0.889	0.4306	-0.306
Mof_H 	H 	0.5258	0.8755	0.4029	0.115
Mof_O 	O 	0.7746	0.4286	0.55154	-0.505
Mof_O 	O 	0.8272	0.2403	0.56854	-0.504
Mof_O 	O 	0.9307	0.6044	0.75805	-0.334
Mof_O 	O 	0.7785	0.5985	0.94268	-0.49
Mof_O 	O 	0.8324	0.7862	0.96024	-0.522
Mof_C 	C 	0.8124	0.3597	0.5773	0.493
Mof_C 	C 	0.8436	0.4261	0.6263	-0.307
Mof_C 	C 	0.8247	0.5463	0.643	0.298
Mof_H 	H 	0.7921	0.5884	0.6244	-0.052
Mof_C 	C 	0.8514	0.6084	0.6862	-0.401
Mof_H 	H 	0.8375	0.6922	0.6972	0.181
Mof_C 	C 	0.9	0.5452	0.7142	0.391
Mof_C 	C 	0.9203	0.4231	0.6981	-0.384
Mof_H 	H 	0.953	0.3812	0.7165	0.191
Mof_C 	C 	0.8919	0.3623	0.6543	0.267
Mof_H 	H 	0.905	0.2778	0.6433	-0.047
Mof_C 	C 	0.9019	0.6176	0.8009	0.385
Mof_C 	C 	0.8556	0.5336	0.8097	-0.349
Mof_H 	H 	0.8422	0.4646	0.7863	0.182
Mof_C 	C 	0.83	0.5536	0.8533	0.27
Mof_H 	H 	0.7988	0.4976	0.8593	-0.041
Mof_C 	C 	0.8495	0.6554	0.8888	-0.295
Mof_C 	C 	0.8949	0.7371	0.8801	0.234
Mof_H 	H 	0.9079	0.8062	0.9037	-0.05
Mof_C 	C 	0.9225	0.7185	0.8359	-0.342
Mof_H 	H 	0.9541	0.7735	0.8302	0.165
Mof_C 	C 	0.8185	0.6799	0.9346	0.452
Mof_N 	N 	0.489	0.4929	0.4774	0.09
Mof_C 	C 	0.4812	0.3647	0.4499	-0.321
Mof_C 	C 	0.436	0.361	0.4089	0.584
Mof_H 	H 	0.413	0.4389	0.4007	-0.082
Mof_C 	C 	0.4253	0.2408	0.38	0.028
Mof_H 	H 	0.3951	0.2383	0.3525	-0.695
Mof_C 	C 	0.4598	0.1243	0.3921	0.106
Mof_H 	H 	0.4526	0.0438	0.3727	-0.777
Mof_C 	C 	0.505	0.128	0.4331	-0.376
Mof_C 	C 	0.5157	0.2482	0.462	1.767
Mof_H 	H 	0.5459	0.2508	0.4894	-1.621
Mof_C 	C 	0.5413	0.0024	0.4454	0.171
Mof_H 	H 	0.524	0.9329	0.4239	0
Mof_C 	C 	0.6155	0.8111	0.4732	-0.01
Mof_C 	C 	0.6646	0.786	0.5091	-0.009
Mof_H 	H 	0.6787	0.8546	0.5325	0.024
Mof_C 	C 	0.6925	0.6585	0.5101	0.102
Mof_H 	H 	0.7254	0.6417	0.5341	-0.007
Mof_N 	N 	0.6714	0.556	0.4752	-0.105
Mof_C 	C 	0.6223	0.581	0.4393	-0.041
Mof_H 	H 	0.6081	0.5124	0.4159	-0.002
Mof_C 	C 	0.5943	0.7086	0.4383	0.003
Mof_H 	H 	0.5614	0.7253	0.4143	0.065
Mof_C 	C 	0.5862	0.9469	0.4726	-0.219
Mof_H 	H 	0.6044	0.0066	0.4977	0.084
_end
