data_functionalizedCrystal
_audit_creation_method	'EQeq! by Chris Wilmer'
_symmetry_space_group_name_H-M	'P1'
_symmetry_Int_Tables_number	1
_symmetry_cell_setting	triclinic
loop_
_symmetry_equiv_pos_as_xyz
  x,y,z
_cell_length_a	38.2
_cell_length_b	38.2
_cell_length_c	38.2
_cell_angle_alpha	90
_cell_angle_beta	90
_cell_angle_gamma	90
loop_
_atom_site_label
_atom_site_type_symbol
_atom_site_fract_x
_atom_site_fract_y
_atom_site_fract_z
_atom_site_charge
Mof_C 	C 	0.1906	0.2325	0.0553	0.099
Mof_H 	H 	0.1785	0.2494	0.0427	-0.003
Mof_C 	C 	0.1764	0.2196	0.0858	-0.157
Mof_H 	H 	0.1572	0.2304	0.0962	0.093
Mof_C 	C 	0.1906	0.7325	0.5553	0.098
Mof_H 	H 	0.1785	0.7494	0.5427	-0.004
Mof_C 	C 	0.1764	0.7196	0.5858	-0.158
Mof_H 	H 	0.1572	0.7304	0.5962	0.094
Mof_C 	C 	0.6906	0.2325	0.5553	0.098
Mof_H 	H 	0.6785	0.2494	0.5427	-0.004
Mof_C 	C 	0.6764	0.2196	0.5858	-0.158
Mof_H 	H 	0.6572	0.2304	0.5962	0.094
Mof_C 	C 	0.6906	0.7325	0.0553	0.098
Mof_H 	H 	0.6785	0.7494	0.0427	-0.004
Mof_C 	C 	0.6764	0.7196	0.0858	-0.158
Mof_H 	H 	0.6572	0.7304	0.0962	0.093
Mof_C 	C 	0.8094	0.7675	0.0553	0.098
Mof_H 	H 	0.8215	0.7506	0.0427	-0.004
Mof_C 	C 	0.8236	0.7804	0.0858	-0.158
Mof_H 	H 	0.8428	0.7696	0.0962	0.094
Mof_C 	C 	0.8094	0.2675	0.5553	0.098
Mof_H 	H 	0.8215	0.2506	0.5427	-0.003
Mof_C 	C 	0.8236	0.2804	0.5858	-0.158
Mof_H 	H 	0.8428	0.2696	0.5962	0.094
Mof_C 	C 	0.3094	0.7675	0.5553	0.098
Mof_H 	H 	0.3215	0.7506	0.5427	-0.004
Mof_C 	C 	0.3236	0.7804	0.5858	-0.158
Mof_H 	H 	0.3428	0.7696	0.5962	0.094
Mof_C 	C 	0.3094	0.2675	0.0553	0.098
Mof_H 	H 	0.3215	0.2506	0.0427	-0.004
Mof_C 	C 	0.3236	0.2804	0.0858	-0.158
Mof_H 	H 	0.3428	0.2696	0.0962	0.093
Mof_C 	C 	0.8094	0.2325	0.9447	0.098
Mof_H 	H 	0.8215	0.2494	0.9573	-0.003
Mof_C 	C 	0.8236	0.2196	0.9142	-0.158
Mof_H 	H 	0.8428	0.2304	0.9038	0.094
Mof_C 	C 	0.8094	0.7325	0.4447	0.098
Mof_H 	H 	0.8215	0.7494	0.4573	-0.003
Mof_C 	C 	0.8236	0.7196	0.4142	-0.158
Mof_H 	H 	0.8428	0.7304	0.4038	0.094
Mof_C 	C 	0.3094	0.2325	0.4447	0.098
Mof_H 	H 	0.3215	0.2494	0.4573	-0.004
Mof_C 	C 	0.3236	0.2196	0.4142	-0.158
Mof_H 	H 	0.3428	0.2304	0.4038	0.094
Mof_C 	C 	0.3094	0.7325	0.9447	0.098
Mof_H 	H 	0.3215	0.7494	0.9573	-0.003
Mof_C 	C 	0.3236	0.7196	0.9142	-0.158
Mof_H 	H 	0.3428	0.7304	0.9038	0.094
Mof_C 	C 	0.1906	0.7675	0.9447	0.098
Mof_H 	H 	0.1785	0.7506	0.9573	-0.003
Mof_C 	C 	0.1764	0.7804	0.9142	-0.158
Mof_H 	H 	0.1572	0.7696	0.9038	0.094
Mof_C 	C 	0.1906	0.2675	0.4447	0.098
Mof_H 	H 	0.1785	0.2506	0.4573	-0.004
Mof_C 	C 	0.1764	0.2804	0.4142	-0.158
Mof_H 	H 	0.1572	0.2696	0.4038	0.093
Mof_C 	C 	0.6906	0.7675	0.4447	0.098
Mof_H 	H 	0.6785	0.7506	0.4573	-0.004
Mof_C 	C 	0.6764	0.7804	0.4142	-0.158
Mof_H 	H 	0.6572	0.7696	0.4038	0.094
Mof_C 	C 	0.6906	0.2675	0.9447	0.098
Mof_H 	H 	0.6785	0.2506	0.9573	-0.003
Mof_C 	C 	0.6764	0.2804	0.9142	-0.158
Mof_H 	H 	0.6572	0.2696	0.9038	0.094
Mof_C 	C 	0.0553	0.1906	0.2325	0.098
Mof_H 	H 	0.0427	0.1785	0.2494	-0.004
Mof_C 	C 	0.0858	0.1764	0.2196	-0.158
Mof_H 	H 	0.0962	0.1572	0.2304	0.093
Mof_C 	C 	0.0553	0.6906	0.7325	0.098
Mof_H 	H 	0.0427	0.6785	0.7494	-0.004
Mof_C 	C 	0.0858	0.6764	0.7196	-0.158
Mof_H 	H 	0.0962	0.6572	0.7304	0.093
Mof_C 	C 	0.5553	0.1906	0.7325	0.098
Mof_H 	H 	0.5427	0.1785	0.7494	-0.004
Mof_C 	C 	0.5858	0.1764	0.7196	-0.158
Mof_H 	H 	0.5962	0.1572	0.7304	0.094
Mof_C 	C 	0.5553	0.6906	0.2325	0.098
Mof_H 	H 	0.5427	0.6785	0.2494	-0.004
Mof_C 	C 	0.5858	0.6764	0.2196	-0.158
Mof_H 	H 	0.5962	0.6572	0.2304	0.094
Mof_C 	C 	0.0553	0.8094	0.7675	0.098
Mof_H 	H 	0.0427	0.8215	0.7506	-0.004
Mof_C 	C 	0.0858	0.8236	0.7804	-0.158
Mof_H 	H 	0.0962	0.8428	0.7696	0.094
Mof_C 	C 	0.0553	0.3094	0.2675	0.098
Mof_H 	H 	0.0427	0.3215	0.2506	-0.004
Mof_C 	C 	0.0858	0.3236	0.2804	-0.158
Mof_H 	H 	0.0962	0.3428	0.2696	0.093
Mof_C 	C 	0.5553	0.8094	0.2675	0.098
Mof_H 	H 	0.5427	0.8215	0.2506	-0.003
Mof_C 	C 	0.5858	0.8236	0.2804	-0.158
Mof_H 	H 	0.5962	0.8428	0.2696	0.094
Mof_C 	C 	0.5553	0.3094	0.7675	0.098
Mof_H 	H 	0.5427	0.3215	0.7506	-0.004
Mof_C 	C 	0.5858	0.3236	0.7804	-0.158
Mof_H 	H 	0.5962	0.3428	0.7696	0.094
Mof_C 	C 	0.9447	0.8094	0.2325	0.098
Mof_H 	H 	0.9573	0.8215	0.2494	-0.003
Mof_C 	C 	0.9142	0.8236	0.2196	-0.158
Mof_H 	H 	0.9038	0.8428	0.2304	0.094
Mof_C 	C 	0.9447	0.3094	0.7325	0.098
Mof_H 	H 	0.9573	0.3215	0.7494	-0.003
Mof_C 	C 	0.9142	0.3236	0.7196	-0.158
Mof_H 	H 	0.9038	0.3428	0.7304	0.094
Mof_C 	C 	0.4447	0.8094	0.7325	0.098
Mof_H 	H 	0.4573	0.8215	0.7494	-0.003
Mof_C 	C 	0.4142	0.8236	0.7196	-0.158
Mof_H 	H 	0.4038	0.8428	0.7304	0.094
Mof_C 	C 	0.4447	0.3094	0.2325	0.098
Mof_H 	H 	0.4573	0.3215	0.2494	-0.004
Mof_C 	C 	0.4142	0.3236	0.2196	-0.158
Mof_H 	H 	0.4038	0.3428	0.2304	0.094
Mof_C 	C 	0.9447	0.1906	0.7675	0.098
Mof_H 	H 	0.9573	0.1785	0.7506	-0.003
Mof_C 	C 	0.9142	0.1764	0.7804	-0.158
Mof_H 	H 	0.9038	0.1572	0.7696	0.094
Mof_C 	C 	0.9447	0.6906	0.2675	0.098
Mof_H 	H 	0.9573	0.6785	0.2506	-0.003
Mof_C 	C 	0.9142	0.6764	0.2804	-0.158
Mof_H 	H 	0.9038	0.6572	0.2696	0.094
Mof_C 	C 	0.4447	0.1906	0.2675	0.098
Mof_H 	H 	0.4573	0.1785	0.2506	-0.004
Mof_C 	C 	0.4142	0.1764	0.2804	-0.158
Mof_H 	H 	0.4038	0.1572	0.2696	0.093
Mof_C 	C 	0.4447	0.6906	0.7675	0.098
Mof_H 	H 	0.4573	0.6785	0.7506	-0.004
Mof_C 	C 	0.4142	0.6764	0.7804	-0.158
Mof_H 	H 	0.4038	0.6572	0.7696	0.094
Mof_C 	C 	0.2325	0.0553	0.1906	0.098
Mof_H 	H 	0.2494	0.0427	0.1785	-0.004
Mof_C 	C 	0.2196	0.0858	0.1764	-0.158
Mof_H 	H 	0.2304	0.0962	0.1572	0.093
Mof_C 	C 	0.2325	0.5553	0.6906	0.098
Mof_H 	H 	0.2494	0.5427	0.6785	-0.004
Mof_C 	C 	0.2196	0.5858	0.6764	-0.158
Mof_H 	H 	0.2304	0.5962	0.6572	0.094
Mof_C 	C 	0.7325	0.0553	0.6906	0.098
Mof_H 	H 	0.7494	0.0427	0.6785	-0.004
Mof_C 	C 	0.7196	0.0858	0.6764	-0.158
Mof_H 	H 	0.7304	0.0962	0.6572	0.093
Mof_C 	C 	0.7325	0.5553	0.1906	0.098
Mof_H 	H 	0.7494	0.5427	0.1785	-0.004
Mof_C 	C 	0.7196	0.5858	0.1764	-0.158
Mof_H 	H 	0.7304	0.5962	0.1572	0.094
Mof_C 	C 	0.7675	0.0553	0.8094	0.098
Mof_H 	H 	0.7506	0.0427	0.8215	-0.004
Mof_C 	C 	0.7804	0.0858	0.8236	-0.158
Mof_H 	H 	0.7696	0.0962	0.8428	0.094
Mof_C 	C 	0.7675	0.5553	0.3094	0.098
Mof_H 	H 	0.7506	0.5427	0.3215	-0.004
Mof_C 	C 	0.7804	0.5858	0.3236	-0.158
Mof_H 	H 	0.7696	0.5962	0.3428	0.094
Mof_C 	C 	0.2675	0.0553	0.3094	0.098
Mof_H 	H 	0.2506	0.0427	0.3215	-0.004
Mof_C 	C 	0.2804	0.0858	0.3236	-0.158
Mof_H 	H 	0.2696	0.0962	0.3428	0.093
Mof_C 	C 	0.2675	0.5553	0.8094	0.098
Mof_H 	H 	0.2506	0.5427	0.8215	-0.003
Mof_C 	C 	0.2804	0.5858	0.8236	-0.158
Mof_H 	H 	0.2696	0.5962	0.8428	0.094
Mof_C 	C 	0.2325	0.9447	0.8094	0.098
Mof_H 	H 	0.2494	0.9573	0.8215	-0.003
Mof_C 	C 	0.2196	0.9142	0.8236	-0.158
Mof_H 	H 	0.2304	0.9038	0.8428	0.094
Mof_C 	C 	0.2325	0.4447	0.3094	0.098
Mof_H 	H 	0.2494	0.4573	0.3215	-0.004
Mof_C 	C 	0.2196	0.4142	0.3236	-0.158
Mof_H 	H 	0.2304	0.4038	0.3428	0.094
Mof_C 	C 	0.7325	0.9447	0.3094	0.098
Mof_H 	H 	0.7494	0.9573	0.3215	-0.003
Mof_C 	C 	0.7196	0.9142	0.3236	-0.158
Mof_H 	H 	0.7304	0.9038	0.3428	0.094
Mof_C 	C 	0.7325	0.4447	0.8094	0.098
Mof_H 	H 	0.7494	0.4573	0.8215	-0.003
Mof_C 	C 	0.7196	0.4142	0.8236	-0.158
Mof_H 	H 	0.7304	0.4038	0.8428	0.094
Mof_C 	C 	0.7675	0.9447	0.1906	0.098
Mof_H 	H 	0.7506	0.9573	0.1785	-0.003
Mof_C 	C 	0.7804	0.9142	0.1764	-0.158
Mof_H 	H 	0.7696	0.9038	0.1572	0.094
Mof_C 	C 	0.7675	0.4447	0.6906	0.098
Mof_H 	H 	0.7506	0.4573	0.6785	-0.004
Mof_C 	C 	0.7804	0.4142	0.6764	-0.158
Mof_H 	H 	0.7696	0.4038	0.6572	0.094
Mof_C 	C 	0.2675	0.9447	0.6906	0.098
Mof_H 	H 	0.2506	0.9573	0.6785	-0.003
Mof_C 	C 	0.2804	0.9142	0.6764	-0.158
Mof_H 	H 	0.2696	0.9038	0.6572	0.094
Mof_C 	C 	0.2675	0.4447	0.1906	0.098
Mof_H 	H 	0.2506	0.4573	0.1785	-0.004
Mof_C 	C 	0.2804	0.4142	0.1764	-0.158
Mof_H 	H 	0.2696	0.4038	0.1572	0.093
Mof_C 	C 	0.2325	0.1906	0.9447	0.098
Mof_H 	H 	0.2494	0.1785	0.9573	-0.003
Mof_C 	C 	0.2196	0.1764	0.9142	-0.158
Mof_H 	H 	0.2304	0.1572	0.9038	0.094
Mof_C 	C 	0.2325	0.6906	0.4447	0.098
Mof_H 	H 	0.2494	0.6785	0.4573	-0.004
Mof_C 	C 	0.2196	0.6764	0.4142	-0.158
Mof_H 	H 	0.2304	0.6572	0.4038	0.094
Mof_C 	C 	0.7325	0.1906	0.4447	0.098
Mof_H 	H 	0.7494	0.1785	0.4573	-0.004
Mof_C 	C 	0.7196	0.1764	0.4142	-0.158
Mof_H 	H 	0.7304	0.1572	0.4038	0.094
Mof_C 	C 	0.7325	0.6906	0.9447	0.098
Mof_H 	H 	0.7494	0.6785	0.9573	-0.003
Mof_C 	C 	0.7196	0.6764	0.9142	-0.158
Mof_H 	H 	0.7304	0.6572	0.9038	0.094
Mof_C 	C 	0.7675	0.8094	0.9447	0.098
Mof_H 	H 	0.7506	0.8215	0.9573	-0.003
Mof_C 	C 	0.7804	0.8236	0.9142	-0.158
Mof_H 	H 	0.7696	0.8428	0.9038	0.094
Mof_C 	C 	0.7675	0.3094	0.4447	0.098
Mof_H 	H 	0.7506	0.3215	0.4573	-0.004
Mof_C 	C 	0.7804	0.3236	0.4142	-0.158
Mof_H 	H 	0.7696	0.3428	0.4038	0.094
Mof_C 	C 	0.2675	0.8094	0.4447	0.098
Mof_H 	H 	0.2506	0.8215	0.4573	-0.003
Mof_C 	C 	0.2804	0.8236	0.4142	-0.158
Mof_H 	H 	0.2696	0.8428	0.4038	0.094
Mof_C 	C 	0.2675	0.3094	0.9447	0.098
Mof_H 	H 	0.2506	0.3215	0.9573	-0.003
Mof_C 	C 	0.2804	0.3236	0.9142	-0.158
Mof_H 	H 	0.2696	0.3428	0.9038	0.094
Mof_C 	C 	0.2325	0.8094	0.0553	0.098
Mof_H 	H 	0.2494	0.8215	0.0427	-0.004
Mof_C 	C 	0.2196	0.8236	0.0858	-0.158
Mof_H 	H 	0.2304	0.8428	0.0962	0.094
Mof_C 	C 	0.2325	0.3094	0.5553	0.098
Mof_H 	H 	0.2494	0.3215	0.5427	-0.004
Mof_C 	C 	0.2196	0.3236	0.5858	-0.158
Mof_H 	H 	0.2304	0.3428	0.5962	0.094
Mof_C 	C 	0.7325	0.8094	0.5553	0.098
Mof_H 	H 	0.7494	0.8215	0.5427	-0.003
Mof_C 	C 	0.7196	0.8236	0.5858	-0.158
Mof_H 	H 	0.7304	0.8428	0.5962	0.094
Mof_C 	C 	0.7325	0.3094	0.0553	0.098
Mof_H 	H 	0.7494	0.3215	0.0427	-0.004
Mof_C 	C 	0.7196	0.3236	0.0858	-0.158
Mof_H 	H 	0.7304	0.3428	0.0962	0.093
Mof_C 	C 	0.7675	0.1906	0.0553	0.098
Mof_H 	H 	0.7506	0.1785	0.0427	-0.004
Mof_C 	C 	0.7804	0.1764	0.0858	-0.158
Mof_H 	H 	0.7696	0.1572	0.0962	0.093
Mof_C 	C 	0.7675	0.6906	0.5553	0.098
Mof_H 	H 	0.7506	0.6785	0.5427	-0.004
Mof_C 	C 	0.7804	0.6764	0.5858	-0.158
Mof_H 	H 	0.7696	0.6572	0.5962	0.094
Mof_C 	C 	0.2675	0.1906	0.5553	0.098
Mof_H 	H 	0.2506	0.1785	0.5427	-0.004
Mof_C 	C 	0.2804	0.1764	0.5858	-0.158
Mof_H 	H 	0.2696	0.1572	0.5962	0.093
Mof_C 	C 	0.2675	0.6906	0.0553	0.098
Mof_H 	H 	0.2506	0.6785	0.0427	-0.004
Mof_C 	C 	0.2804	0.6764	0.0858	-0.158
Mof_H 	H 	0.2696	0.6572	0.0962	0.093
Mof_C 	C 	0.1906	0.0553	0.7675	0.098
Mof_H 	H 	0.1785	0.0427	0.7506	-0.004
Mof_C 	C 	0.1764	0.0858	0.7804	-0.158
Mof_H 	H 	0.1572	0.0962	0.7696	0.093
Mof_C 	C 	0.1906	0.5553	0.2675	0.098
Mof_H 	H 	0.1785	0.5427	0.2506	-0.004
Mof_C 	C 	0.1764	0.5858	0.2804	-0.158
Mof_H 	H 	0.1572	0.5962	0.2696	0.093
Mof_C 	C 	0.6906	0.0553	0.2675	0.098
Mof_H 	H 	0.6785	0.0427	0.2506	-0.004
Mof_C 	C 	0.6764	0.0858	0.2804	-0.158
Mof_H 	H 	0.6572	0.0962	0.2696	0.093
Mof_C 	C 	0.6906	0.5553	0.7675	0.098
Mof_H 	H 	0.6785	0.5427	0.7506	-0.004
Mof_C 	C 	0.6764	0.5858	0.7804	-0.158
Mof_H 	H 	0.6572	0.5962	0.7696	0.094
Mof_C 	C 	0.8094	0.0553	0.2325	0.098
Mof_H 	H 	0.8215	0.0427	0.2494	-0.004
Mof_C 	C 	0.8236	0.0858	0.2196	-0.158
Mof_H 	H 	0.8428	0.0962	0.2304	0.094
Mof_C 	C 	0.8094	0.5553	0.7325	0.098
Mof_H 	H 	0.8215	0.5427	0.7494	-0.003
Mof_C 	C 	0.8236	0.5858	0.7196	-0.158
Mof_H 	H 	0.8428	0.5962	0.7304	0.094
Mof_C 	C 	0.3094	0.0553	0.7325	0.098
Mof_H 	H 	0.3215	0.0427	0.7494	-0.004
Mof_C 	C 	0.3236	0.0858	0.7196	-0.158
Mof_H 	H 	0.3428	0.0962	0.7304	0.093
Mof_C 	C 	0.3094	0.5553	0.2325	0.098
Mof_H 	H 	0.3215	0.5427	0.2494	-0.004
Mof_C 	C 	0.3236	0.5858	0.2196	-0.158
Mof_H 	H 	0.3428	0.5962	0.2304	0.094
Mof_C 	C 	0.8094	0.9447	0.7675	0.098
Mof_H 	H 	0.8215	0.9573	0.7506	-0.003
Mof_C 	C 	0.8236	0.9142	0.7804	-0.158
Mof_H 	H 	0.8428	0.9038	0.7696	0.094
Mof_C 	C 	0.8094	0.4447	0.2675	0.098
Mof_H 	H 	0.8215	0.4573	0.2506	-0.003
Mof_C 	C 	0.8236	0.4142	0.2804	-0.158
Mof_H 	H 	0.8428	0.4038	0.2696	0.094
Mof_C 	C 	0.3094	0.9447	0.2675	0.098
Mof_H 	H 	0.3215	0.9573	0.2506	-0.003
Mof_C 	C 	0.3236	0.9142	0.2804	-0.158
Mof_H 	H 	0.3428	0.9038	0.2696	0.094
Mof_C 	C 	0.3094	0.4447	0.7675	0.098
Mof_H 	H 	0.3215	0.4573	0.7506	-0.004
Mof_C 	C 	0.3236	0.4142	0.7804	-0.158
Mof_H 	H 	0.3428	0.4038	0.7696	0.094
Mof_C 	C 	0.1906	0.9447	0.2325	0.098
Mof_H 	H 	0.1785	0.9573	0.2494	-0.003
Mof_C 	C 	0.1764	0.9142	0.2196	-0.158
Mof_H 	H 	0.1572	0.9038	0.2304	0.094
Mof_C 	C 	0.1906	0.4447	0.7325	0.098
Mof_H 	H 	0.1785	0.4573	0.7494	-0.004
Mof_C 	C 	0.1764	0.4142	0.7196	-0.158
Mof_H 	H 	0.1572	0.4038	0.7304	0.094
Mof_C 	C 	0.6906	0.9447	0.7325	0.098
Mof_H 	H 	0.6785	0.9573	0.7494	-0.003
Mof_C 	C 	0.6764	0.9142	0.7196	-0.158
Mof_H 	H 	0.6572	0.9038	0.7304	0.094
Mof_C 	C 	0.6906	0.4447	0.2325	0.098
Mof_H 	H 	0.6785	0.4573	0.2494	-0.004
Mof_C 	C 	0.6764	0.4142	0.2196	-0.158
Mof_H 	H 	0.6572	0.4038	0.2304	0.094
Mof_C 	C 	0.0553	0.2325	0.8094	0.098
Mof_H 	H 	0.0427	0.2494	0.8215	-0.004
Mof_C 	C 	0.0858	0.2196	0.8236	-0.158
Mof_H 	H 	0.0962	0.2304	0.8428	0.094
Mof_C 	C 	0.0553	0.7325	0.3094	0.098
Mof_H 	H 	0.0427	0.7494	0.3215	-0.004
Mof_C 	C 	0.0858	0.7196	0.3236	-0.158
Mof_H 	H 	0.0962	0.7304	0.3428	0.093
Mof_C 	C 	0.5553	0.2325	0.3094	0.098
Mof_H 	H 	0.5427	0.2494	0.3215	-0.004
Mof_C 	C 	0.5858	0.2196	0.3236	-0.158
Mof_H 	H 	0.5962	0.2304	0.3428	0.094
Mof_C 	C 	0.5553	0.7325	0.8094	0.098
Mof_H 	H 	0.5427	0.7494	0.8215	-0.003
Mof_C 	C 	0.5858	0.7196	0.8236	-0.158
Mof_H 	H 	0.5962	0.7304	0.8428	0.094
Mof_C 	C 	0.0553	0.7675	0.1906	0.098
Mof_H 	H 	0.0427	0.7506	0.1785	-0.004
Mof_C 	C 	0.0858	0.7804	0.1764	-0.158
Mof_H 	H 	0.0962	0.7696	0.1572	0.093
Mof_C 	C 	0.0553	0.2675	0.6906	0.098
Mof_H 	H 	0.0427	0.2506	0.6785	-0.004
Mof_C 	C 	0.0858	0.2804	0.6764	-0.158
Mof_H 	H 	0.0962	0.2696	0.6572	0.093
Mof_C 	C 	0.5553	0.7675	0.6906	0.098
Mof_H 	H 	0.5427	0.7506	0.6785	-0.004
Mof_C 	C 	0.5858	0.7804	0.6764	-0.158
Mof_H 	H 	0.5962	0.7696	0.6572	0.094
Mof_C 	C 	0.5553	0.2675	0.1906	0.098
Mof_H 	H 	0.5427	0.2506	0.1785	-0.004
Mof_C 	C 	0.5858	0.2804	0.1764	-0.158
Mof_H 	H 	0.5962	0.2696	0.1572	0.093
Mof_C 	C 	0.9447	0.2325	0.1906	0.098
Mof_H 	H 	0.9573	0.2494	0.1785	-0.003
Mof_C 	C 	0.9142	0.2196	0.1764	-0.158
Mof_H 	H 	0.9038	0.2304	0.1572	0.094
Mof_C 	C 	0.9447	0.7325	0.6906	0.098
Mof_H 	H 	0.9573	0.7494	0.6785	-0.003
Mof_C 	C 	0.9142	0.7196	0.6764	-0.158
Mof_H 	H 	0.9038	0.7304	0.6572	0.094
Mof_C 	C 	0.4447	0.2325	0.6906	0.098
Mof_H 	H 	0.4573	0.2494	0.6785	-0.004
Mof_C 	C 	0.4142	0.2196	0.6764	-0.158
Mof_H 	H 	0.4038	0.2304	0.6572	0.094
Mof_C 	C 	0.4447	0.7325	0.1906	0.098
Mof_H 	H 	0.4573	0.7494	0.1785	-0.004
Mof_C 	C 	0.4142	0.7196	0.1764	-0.158
Mof_H 	H 	0.4038	0.7304	0.1572	0.094
Mof_C 	C 	0.9447	0.7675	0.8094	0.098
Mof_H 	H 	0.9573	0.7506	0.8215	-0.003
Mof_C 	C 	0.9142	0.7804	0.8236	-0.158
Mof_H 	H 	0.9038	0.7696	0.8428	0.094
Mof_C 	C 	0.9447	0.2675	0.3094	0.098
Mof_H 	H 	0.9573	0.2506	0.3215	-0.003
Mof_C 	C 	0.9142	0.2804	0.3236	-0.158
Mof_H 	H 	0.9038	0.2696	0.3428	0.094
Mof_C 	C 	0.4447	0.7675	0.3094	0.098
Mof_H 	H 	0.4573	0.7506	0.3215	-0.004
Mof_C 	C 	0.4142	0.7804	0.3236	-0.158
Mof_H 	H 	0.4038	0.7696	0.3428	0.094
Mof_C 	C 	0.4447	0.2675	0.8094	0.098
Mof_H 	H 	0.4573	0.2506	0.8215	-0.003
Mof_C 	C 	0.4142	0.2804	0.8236	-0.158
Mof_H 	H 	0.4038	0.2696	0.8428	0.094
Mof_C 	C 	0.8094	0.7675	0.9447	0.098
Mof_H 	H 	0.8215	0.7506	0.9573	-0.003
Mof_C 	C 	0.8236	0.7804	0.9142	-0.158
Mof_H 	H 	0.8428	0.7696	0.9038	0.094
Mof_C 	C 	0.8094	0.2675	0.4447	0.098
Mof_H 	H 	0.8215	0.2506	0.4573	-0.003
Mof_C 	C 	0.8236	0.2804	0.4142	-0.158
Mof_H 	H 	0.8428	0.2696	0.4038	0.094
Mof_C 	C 	0.3094	0.7675	0.4447	0.098
Mof_H 	H 	0.3215	0.7506	0.4573	-0.004
Mof_C 	C 	0.3236	0.7804	0.4142	-0.158
Mof_H 	H 	0.3428	0.7696	0.4038	0.094
Mof_C 	C 	0.3094	0.2675	0.9447	0.098
Mof_H 	H 	0.3215	0.2506	0.9573	-0.003
Mof_C 	C 	0.3236	0.2804	0.9142	-0.158
Mof_H 	H 	0.3428	0.2696	0.9038	0.094
Mof_C 	C 	0.1906	0.2325	0.9447	0.098
Mof_H 	H 	0.1785	0.2494	0.9573	-0.003
Mof_C 	C 	0.1764	0.2196	0.9142	-0.158
Mof_H 	H 	0.1572	0.2304	0.9038	0.094
Mof_C 	C 	0.1906	0.7325	0.4447	0.098
Mof_H 	H 	0.1785	0.7494	0.4573	-0.004
Mof_C 	C 	0.1764	0.7196	0.4142	-0.158
Mof_H 	H 	0.1572	0.7304	0.4038	0.094
Mof_C 	C 	0.6906	0.2325	0.4447	0.098
Mof_H 	H 	0.6785	0.2494	0.4573	-0.004
Mof_C 	C 	0.6764	0.2196	0.4142	-0.158
Mof_H 	H 	0.6572	0.2304	0.4038	0.094
Mof_C 	C 	0.6906	0.7325	0.9447	0.098
Mof_H 	H 	0.6785	0.7494	0.9573	-0.003
Mof_C 	C 	0.6764	0.7196	0.9142	-0.158
Mof_H 	H 	0.6572	0.7304	0.9038	0.094
Mof_C 	C 	0.1906	0.7675	0.0553	0.098
Mof_H 	H 	0.1785	0.7506	0.0427	-0.004
Mof_C 	C 	0.1764	0.7804	0.0858	-0.158
Mof_H 	H 	0.1572	0.7696	0.0962	0.093
Mof_C 	C 	0.1906	0.2675	0.5553	0.098
Mof_H 	H 	0.1785	0.2506	0.5427	-0.004
Mof_C 	C 	0.1764	0.2804	0.5858	-0.158
Mof_H 	H 	0.1572	0.2696	0.5962	0.093
Mof_C 	C 	0.6906	0.7675	0.5553	0.098
Mof_H 	H 	0.6785	0.7506	0.5427	-0.004
Mof_C 	C 	0.6764	0.7804	0.5858	-0.158
Mof_H 	H 	0.6572	0.7696	0.5962	0.094
Mof_C 	C 	0.6906	0.2675	0.0553	0.098
Mof_H 	H 	0.6785	0.2506	0.0427	-0.004
Mof_C 	C 	0.6764	0.2804	0.0858	-0.158
Mof_H 	H 	0.6572	0.2696	0.0962	0.093
Mof_C 	C 	0.8094	0.2325	0.0553	0.098
Mof_H 	H 	0.8215	0.2494	0.0427	-0.004
Mof_C 	C 	0.8236	0.2196	0.0858	-0.158
Mof_H 	H 	0.8428	0.2304	0.0962	0.094
Mof_C 	C 	0.8094	0.7325	0.5553	0.098
Mof_H 	H 	0.8215	0.7494	0.5427	-0.003
Mof_C 	C 	0.8236	0.7196	0.5858	-0.158
Mof_H 	H 	0.8428	0.7304	0.5962	0.094
Mof_C 	C 	0.3094	0.2325	0.5553	0.098
Mof_H 	H 	0.3215	0.2494	0.5427	-0.004
Mof_C 	C 	0.3236	0.2196	0.5858	-0.158
Mof_H 	H 	0.3428	0.2304	0.5962	0.094
Mof_C 	C 	0.3094	0.7325	0.0553	0.098
Mof_H 	H 	0.3215	0.7494	0.0427	-0.004
Mof_C 	C 	0.3236	0.7196	0.0858	-0.158
Mof_H 	H 	0.3428	0.7304	0.0962	0.093
Mof_C 	C 	0.9447	0.8094	0.7675	0.098
Mof_H 	H 	0.9573	0.8215	0.7506	-0.003
Mof_C 	C 	0.9142	0.8236	0.7804	-0.158
Mof_H 	H 	0.9038	0.8428	0.7696	0.094
Mof_C 	C 	0.9447	0.3094	0.2675	0.098
Mof_H 	H 	0.9573	0.3215	0.2506	-0.003
Mof_C 	C 	0.9142	0.3236	0.2804	-0.158
Mof_H 	H 	0.9038	0.3428	0.2696	0.094
Mof_C 	C 	0.4447	0.8094	0.2675	0.098
Mof_H 	H 	0.4573	0.8215	0.2506	-0.003
Mof_C 	C 	0.4142	0.8236	0.2804	-0.158
Mof_H 	H 	0.4038	0.8428	0.2696	0.094
Mof_C 	C 	0.4447	0.3094	0.7675	0.098
Mof_H 	H 	0.4573	0.3215	0.7506	-0.004
Mof_C 	C 	0.4142	0.3236	0.7804	-0.158
Mof_H 	H 	0.4038	0.3428	0.7696	0.094
Mof_C 	C 	0.9447	0.1906	0.2325	0.098
Mof_H 	H 	0.9573	0.1785	0.2494	-0.003
Mof_C 	C 	0.9142	0.1764	0.2196	-0.158
Mof_H 	H 	0.9038	0.1572	0.2304	0.094
Mof_C 	C 	0.9447	0.6906	0.7325	0.098
Mof_H 	H 	0.9573	0.6785	0.7494	-0.003
Mof_C 	C 	0.9142	0.6764	0.7196	-0.158
Mof_H 	H 	0.9038	0.6572	0.7304	0.094
Mof_C 	C 	0.4447	0.1906	0.7325	0.098
Mof_H 	H 	0.4573	0.1785	0.7494	-0.004
Mof_C 	C 	0.4142	0.1764	0.7196	-0.158
Mof_H 	H 	0.4038	0.1572	0.7304	0.094
Mof_C 	C 	0.4447	0.6906	0.2325	0.098
Mof_H 	H 	0.4573	0.6785	0.2494	-0.004
Mof_C 	C 	0.4142	0.6764	0.2196	-0.158
Mof_H 	H 	0.4038	0.6572	0.2304	0.094
Mof_C 	C 	0.0553	0.1906	0.7675	0.098
Mof_H 	H 	0.0427	0.1785	0.7506	-0.004
Mof_C 	C 	0.0858	0.1764	0.7804	-0.158
Mof_H 	H 	0.0962	0.1572	0.7696	0.093
Mof_C 	C 	0.0553	0.6906	0.2675	0.098
Mof_H 	H 	0.0427	0.6785	0.2506	-0.004
Mof_C 	C 	0.0858	0.6764	0.2804	-0.158
Mof_H 	H 	0.0962	0.6572	0.2696	0.093
Mof_C 	C 	0.5553	0.1906	0.2675	0.098
Mof_H 	H 	0.5427	0.1785	0.2506	-0.004
Mof_C 	C 	0.5858	0.1764	0.2804	-0.158
Mof_H 	H 	0.5962	0.1572	0.2696	0.093
Mof_C 	C 	0.5553	0.6906	0.7675	0.098
Mof_H 	H 	0.5427	0.6785	0.7506	-0.004
Mof_C 	C 	0.5858	0.6764	0.7804	-0.158
Mof_H 	H 	0.5962	0.6572	0.7696	0.094
Mof_C 	C 	0.0553	0.8094	0.2325	0.098
Mof_H 	H 	0.0427	0.8215	0.2494	-0.004
Mof_C 	C 	0.0858	0.8236	0.2196	-0.158
Mof_H 	H 	0.0962	0.8428	0.2304	0.094
Mof_C 	C 	0.0553	0.3094	0.7325	0.098
Mof_H 	H 	0.0427	0.3215	0.7494	-0.004
Mof_C 	C 	0.0858	0.3236	0.7196	-0.158
Mof_H 	H 	0.0962	0.3428	0.7304	0.093
Mof_C 	C 	0.5553	0.8094	0.7325	0.098
Mof_H 	H 	0.5427	0.8215	0.7494	-0.003
Mof_C 	C 	0.5858	0.8236	0.7196	-0.158
Mof_H 	H 	0.5962	0.8428	0.7304	0.094
Mof_C 	C 	0.5553	0.3094	0.2325	0.098
Mof_H 	H 	0.5427	0.3215	0.2494	-0.004
Mof_C 	C 	0.5858	0.3236	0.2196	-0.158
Mof_H 	H 	0.5962	0.3428	0.2304	0.094
Mof_C 	C 	0.7675	0.9447	0.8094	0.098
Mof_H 	H 	0.7506	0.9573	0.8215	-0.003
Mof_C 	C 	0.7804	0.9142	0.8236	-0.158
Mof_H 	H 	0.7696	0.9038	0.8428	0.094
Mof_C 	C 	0.7675	0.4447	0.3094	0.098
Mof_H 	H 	0.7506	0.4573	0.3215	-0.004
Mof_C 	C 	0.7804	0.4142	0.3236	-0.158
Mof_H 	H 	0.7696	0.4038	0.3428	0.094
Mof_C 	C 	0.2675	0.9447	0.3094	0.098
Mof_H 	H 	0.2506	0.9573	0.3215	-0.003
Mof_C 	C 	0.2804	0.9142	0.3236	-0.158
Mof_H 	H 	0.2696	0.9038	0.3428	0.094
Mof_C 	C 	0.2675	0.4447	0.8094	0.098
Mof_H 	H 	0.2506	0.4573	0.8215	-0.003
Mof_C 	C 	0.2804	0.4142	0.8236	-0.158
Mof_H 	H 	0.2696	0.4038	0.8428	0.094
Mof_C 	C 	0.2325	0.9447	0.1906	0.098
Mof_H 	H 	0.2494	0.9573	0.1785	-0.003
Mof_C 	C 	0.2196	0.9142	0.1764	-0.158
Mof_H 	H 	0.2304	0.9038	0.1572	0.094
Mof_C 	C 	0.2325	0.4447	0.6906	0.098
Mof_H 	H 	0.2494	0.4573	0.6785	-0.004
Mof_C 	C 	0.2196	0.4142	0.6764	-0.158
Mof_H 	H 	0.2304	0.4038	0.6572	0.094
Mof_C 	C 	0.7325	0.9447	0.6906	0.098
Mof_H 	H 	0.7494	0.9573	0.6785	-0.003
Mof_C 	C 	0.7196	0.9142	0.6764	-0.158
Mof_H 	H 	0.7304	0.9038	0.6572	0.094
Mof_C 	C 	0.7325	0.4447	0.1906	0.098
Mof_H 	H 	0.7494	0.4573	0.1785	-0.004
Mof_C 	C 	0.7196	0.4142	0.1764	-0.158
Mof_H 	H 	0.7304	0.4038	0.1572	0.094
Mof_C 	C 	0.7675	0.0553	0.1906	0.098
Mof_H 	H 	0.7506	0.0427	0.1785	-0.004
Mof_C 	C 	0.7804	0.0858	0.1764	-0.158
Mof_H 	H 	0.7696	0.0962	0.1572	0.093
Mof_C 	C 	0.7675	0.5553	0.6906	0.098
Mof_H 	H 	0.7506	0.5427	0.6785	-0.004
Mof_C 	C 	0.7804	0.5858	0.6764	-0.158
Mof_H 	H 	0.7696	0.5962	0.6572	0.094
Mof_C 	C 	0.2675	0.0553	0.6906	0.098
Mof_H 	H 	0.2506	0.0427	0.6785	-0.004
Mof_C 	C 	0.2804	0.0858	0.6764	-0.158
Mof_H 	H 	0.2696	0.0962	0.6572	0.093
Mof_C 	C 	0.2675	0.5553	0.1906	0.098
Mof_H 	H 	0.2506	0.5427	0.1785	-0.004
Mof_C 	C 	0.2804	0.5858	0.1764	-0.158
Mof_H 	H 	0.2696	0.5962	0.1572	0.093
Mof_C 	C 	0.2325	0.0553	0.8094	0.098
Mof_H 	H 	0.2494	0.0427	0.8215	-0.004
Mof_C 	C 	0.2196	0.0858	0.8236	-0.158
Mof_H 	H 	0.2304	0.0962	0.8428	0.094
Mof_C 	C 	0.2325	0.5553	0.3094	0.098
Mof_H 	H 	0.2494	0.5427	0.3215	-0.004
Mof_C 	C 	0.2196	0.5858	0.3236	-0.158
Mof_H 	H 	0.2304	0.5962	0.3428	0.094
Mof_C 	C 	0.7325	0.0553	0.3094	0.098
Mof_H 	H 	0.7494	0.0427	0.3215	-0.004
Mof_C 	C 	0.7196	0.0858	0.3236	-0.158
Mof_H 	H 	0.7304	0.0962	0.3428	0.093
Mof_C 	C 	0.7325	0.5553	0.8094	0.098
Mof_H 	H 	0.7494	0.5427	0.8215	-0.003
Mof_C 	C 	0.7196	0.5858	0.8236	-0.158
Mof_H 	H 	0.7304	0.5962	0.8428	0.094
Mof_C 	C 	0.7675	0.8094	0.0553	0.098
Mof_H 	H 	0.7506	0.8215	0.0427	-0.004
Mof_C 	C 	0.7804	0.8236	0.0858	-0.158
Mof_H 	H 	0.7696	0.8428	0.0962	0.094
Mof_C 	C 	0.7675	0.3094	0.5553	0.098
Mof_H 	H 	0.7506	0.3215	0.5427	-0.004
Mof_C 	C 	0.7804	0.3236	0.5858	-0.158
Mof_H 	H 	0.7696	0.3428	0.5962	0.094
Mof_C 	C 	0.2675	0.8094	0.5553	0.098
Mof_H 	H 	0.2506	0.8215	0.5427	-0.003
Mof_C 	C 	0.2804	0.8236	0.5858	-0.158
Mof_H 	H 	0.2696	0.8428	0.5962	0.094
Mof_C 	C 	0.2675	0.3094	0.0553	0.098
Mof_H 	H 	0.2506	0.3215	0.0427	-0.004
Mof_C 	C 	0.2804	0.3236	0.0858	-0.158
Mof_H 	H 	0.2696	0.3428	0.0962	0.093
Mof_C 	C 	0.2325	0.1906	0.0553	0.098
Mof_H 	H 	0.2494	0.1785	0.0427	-0.004
Mof_C 	C 	0.2196	0.1764	0.0858	-0.158
Mof_H 	H 	0.2304	0.1572	0.0962	0.093
Mof_C 	C 	0.2325	0.6906	0.5553	0.098
Mof_H 	H 	0.2494	0.6785	0.5427	-0.004
Mof_C 	C 	0.2196	0.6764	0.5858	-0.158
Mof_H 	H 	0.2304	0.6572	0.5962	0.094
Mof_C 	C 	0.7325	0.1906	0.5553	0.098
Mof_H 	H 	0.7494	0.1785	0.5427	-0.004
Mof_C 	C 	0.7196	0.1764	0.5858	-0.158
Mof_H 	H 	0.7304	0.1572	0.5962	0.094
Mof_C 	C 	0.7325	0.6906	0.0553	0.098
Mof_H 	H 	0.7494	0.6785	0.0427	-0.004
Mof_C 	C 	0.7196	0.6764	0.0858	-0.158
Mof_H 	H 	0.7304	0.6572	0.0962	0.093
Mof_C 	C 	0.7675	0.1906	0.9447	0.098
Mof_H 	H 	0.7506	0.1785	0.9573	-0.003
Mof_C 	C 	0.7804	0.1764	0.9142	-0.158
Mof_H 	H 	0.7696	0.1572	0.9038	0.094
Mof_C 	C 	0.7675	0.6906	0.4447	0.098
Mof_H 	H 	0.7506	0.6785	0.4573	-0.004
Mof_C 	C 	0.7804	0.6764	0.4142	-0.158
Mof_H 	H 	0.7696	0.6572	0.4038	0.094
Mof_C 	C 	0.2675	0.1906	0.4447	0.098
Mof_H 	H 	0.2506	0.1785	0.4573	-0.004
Mof_C 	C 	0.2804	0.1764	0.4142	-0.158
Mof_H 	H 	0.2696	0.1572	0.4038	0.093
Mof_C 	C 	0.2675	0.6906	0.9447	0.098
Mof_H 	H 	0.2506	0.6785	0.9573	-0.003
Mof_C 	C 	0.2804	0.6764	0.9142	-0.158
Mof_H 	H 	0.2696	0.6572	0.9038	0.094
Mof_C 	C 	0.2325	0.8094	0.9447	0.098
Mof_H 	H 	0.2494	0.8215	0.9573	-0.003
Mof_C 	C 	0.2196	0.8236	0.9142	-0.158
Mof_H 	H 	0.2304	0.8428	0.9038	0.094
Mof_C 	C 	0.2325	0.3094	0.4447	0.098
Mof_H 	H 	0.2494	0.3215	0.4573	-0.004
Mof_C 	C 	0.2196	0.3236	0.4142	-0.158
Mof_H 	H 	0.2304	0.3428	0.4038	0.094
Mof_C 	C 	0.7325	0.8094	0.4447	0.098
Mof_H 	H 	0.7494	0.8215	0.4573	-0.003
Mof_C 	C 	0.7196	0.8236	0.4142	-0.158
Mof_H 	H 	0.7304	0.8428	0.4038	0.094
Mof_C 	C 	0.7325	0.3094	0.9447	0.098
Mof_H 	H 	0.7494	0.3215	0.9573	-0.003
Mof_C 	C 	0.7196	0.3236	0.9142	-0.158
Mof_H 	H 	0.7304	0.3428	0.9038	0.094
Mof_C 	C 	0.8094	0.9447	0.2325	0.098
Mof_H 	H 	0.8215	0.9573	0.2494	-0.003
Mof_C 	C 	0.8236	0.9142	0.2196	-0.158
Mof_H 	H 	0.8428	0.9038	0.2304	0.094
Mof_C 	C 	0.8094	0.4447	0.7325	0.098
Mof_H 	H 	0.8215	0.4573	0.7494	-0.003
Mof_C 	C 	0.8236	0.4142	0.7196	-0.158
Mof_H 	H 	0.8428	0.4038	0.7304	0.094
Mof_C 	C 	0.3094	0.9447	0.7325	0.098
Mof_H 	H 	0.3215	0.9573	0.7494	-0.003
Mof_C 	C 	0.3236	0.9142	0.7196	-0.158
Mof_H 	H 	0.3428	0.9038	0.7304	0.094
Mof_C 	C 	0.3094	0.4447	0.2325	0.098
Mof_H 	H 	0.3215	0.4573	0.2494	-0.004
Mof_C 	C 	0.3236	0.4142	0.2196	-0.158
Mof_H 	H 	0.3428	0.4038	0.2304	0.094
Mof_C 	C 	0.1906	0.9447	0.7675	0.098
Mof_H 	H 	0.1785	0.9573	0.7506	-0.003
Mof_C 	C 	0.1764	0.9142	0.7804	-0.158
Mof_H 	H 	0.1572	0.9038	0.7696	0.094
Mof_C 	C 	0.1906	0.4447	0.2675	0.098
Mof_H 	H 	0.1785	0.4573	0.2506	-0.004
Mof_C 	C 	0.1764	0.4142	0.2804	-0.158
Mof_H 	H 	0.1572	0.4038	0.2696	0.093
Mof_C 	C 	0.6906	0.9447	0.2675	0.098
Mof_H 	H 	0.6785	0.9573	0.2506	-0.003
Mof_C 	C 	0.6764	0.9142	0.2804	-0.158
Mof_H 	H 	0.6572	0.9038	0.2696	0.094
Mof_C 	C 	0.6906	0.4447	0.7675	0.098
Mof_H 	H 	0.6785	0.4573	0.7506	-0.004
Mof_C 	C 	0.6764	0.4142	0.7804	-0.158
Mof_H 	H 	0.6572	0.4038	0.7696	0.094
Mof_C 	C 	0.1906	0.0553	0.2325	0.098
Mof_H 	H 	0.1785	0.0427	0.2494	-0.004
Mof_C 	C 	0.1764	0.0858	0.2196	-0.158
Mof_H 	H 	0.1572	0.0962	0.2304	0.093
Mof_C 	C 	0.1906	0.5553	0.7325	0.098
Mof_H 	H 	0.1785	0.5427	0.7494	-0.004
Mof_C 	C 	0.1764	0.5858	0.7196	-0.158
Mof_H 	H 	0.1572	0.5962	0.7304	0.094
Mof_C 	C 	0.6906	0.0553	0.7325	0.098
Mof_H 	H 	0.6785	0.0427	0.7494	-0.004
Mof_C 	C 	0.6764	0.0858	0.7196	-0.158
Mof_H 	H 	0.6572	0.0962	0.7304	0.093
Mof_C 	C 	0.6906	0.5553	0.2325	0.098
Mof_H 	H 	0.6785	0.5427	0.2494	-0.004
Mof_C 	C 	0.6764	0.5858	0.2196	-0.158
Mof_H 	H 	0.6572	0.5962	0.2304	0.094
Mof_C 	C 	0.8094	0.0553	0.7675	0.098
Mof_H 	H 	0.8215	0.0427	0.7506	-0.004
Mof_C 	C 	0.8236	0.0858	0.7804	-0.158
Mof_H 	H 	0.8428	0.0962	0.7696	0.094
Mof_C 	C 	0.8094	0.5553	0.2675	0.098
Mof_H 	H 	0.8215	0.5427	0.2506	-0.003
Mof_C 	C 	0.8236	0.5858	0.2804	-0.158
Mof_H 	H 	0.8428	0.5962	0.2696	0.094
Mof_C 	C 	0.3094	0.0553	0.2675	0.098
Mof_H 	H 	0.3215	0.0427	0.2506	-0.004
Mof_C 	C 	0.3236	0.0858	0.2804	-0.158
Mof_H 	H 	0.3428	0.0962	0.2696	0.093
Mof_C 	C 	0.3094	0.5553	0.7675	0.098
Mof_H 	H 	0.3215	0.5427	0.7506	-0.004
Mof_C 	C 	0.3236	0.5858	0.7804	-0.158
Mof_H 	H 	0.3428	0.5962	0.7696	0.094
Mof_C 	C 	0.9447	0.7675	0.1906	0.098
Mof_H 	H 	0.9573	0.7506	0.1785	-0.003
Mof_C 	C 	0.9142	0.7804	0.1764	-0.158
Mof_H 	H 	0.9038	0.7696	0.1572	0.094
Mof_C 	C 	0.9447	0.2675	0.6906	0.098
Mof_H 	H 	0.9573	0.2506	0.6785	-0.003
Mof_C 	C 	0.9142	0.2804	0.6764	-0.158
Mof_H 	H 	0.9038	0.2696	0.6572	0.094
Mof_C 	C 	0.4447	0.7675	0.6906	0.098
Mof_H 	H 	0.4573	0.7506	0.6785	-0.004
Mof_C 	C 	0.4142	0.7804	0.6764	-0.158
Mof_H 	H 	0.4038	0.7696	0.6572	0.094
Mof_C 	C 	0.4447	0.2675	0.1906	0.098
Mof_H 	H 	0.4573	0.2506	0.1785	-0.004
Mof_C 	C 	0.4142	0.2804	0.1764	-0.158
Mof_H 	H 	0.4038	0.2696	0.1572	0.093
Mof_C 	C 	0.9447	0.2325	0.8094	0.098
Mof_H 	H 	0.9573	0.2494	0.8215	-0.003
Mof_C 	C 	0.9142	0.2196	0.8236	-0.158
Mof_H 	H 	0.9038	0.2304	0.8428	0.094
Mof_C 	C 	0.9447	0.7325	0.3094	0.098
Mof_H 	H 	0.9573	0.7494	0.3215	-0.003
Mof_C 	C 	0.9142	0.7196	0.3236	-0.158
Mof_H 	H 	0.9038	0.7304	0.3428	0.094
Mof_C 	C 	0.4447	0.2325	0.3094	0.098
Mof_H 	H 	0.4573	0.2494	0.3215	-0.004
Mof_C 	C 	0.4142	0.2196	0.3236	-0.158
Mof_H 	H 	0.4038	0.2304	0.3428	0.094
Mof_C 	C 	0.4447	0.7325	0.8094	0.098
Mof_H 	H 	0.4573	0.7494	0.8215	-0.003
Mof_C 	C 	0.4142	0.7196	0.8236	-0.158
Mof_H 	H 	0.4038	0.7304	0.8428	0.094
Mof_C 	C 	0.0553	0.7675	0.8094	0.098
Mof_H 	H 	0.0427	0.7506	0.8215	-0.004
Mof_C 	C 	0.0858	0.7804	0.8236	-0.158
Mof_H 	H 	0.0962	0.7696	0.8428	0.094
Mof_C 	C 	0.0553	0.2675	0.3094	0.098
Mof_H 	H 	0.0427	0.2506	0.3215	-0.004
Mof_C 	C 	0.0858	0.2804	0.3236	-0.158
Mof_H 	H 	0.0962	0.2696	0.3428	0.093
Mof_C 	C 	0.5553	0.7675	0.3094	0.098
Mof_H 	H 	0.5427	0.7506	0.3215	-0.004
Mof_C 	C 	0.5858	0.7804	0.3236	-0.158
Mof_H 	H 	0.5962	0.7696	0.3428	0.094
Mof_C 	C 	0.5553	0.2675	0.8094	0.098
Mof_H 	H 	0.5427	0.2506	0.8215	-0.003
Mof_C 	C 	0.5858	0.2804	0.8236	-0.158
Mof_H 	H 	0.5962	0.2696	0.8428	0.094
Mof_C 	C 	0.0553	0.2325	0.1906	0.098
Mof_H 	H 	0.0427	0.2494	0.1785	-0.004
Mof_C 	C 	0.0858	0.2196	0.1764	-0.158
Mof_H 	H 	0.0962	0.2304	0.1572	0.093
Mof_C 	C 	0.0553	0.7325	0.6906	0.098
Mof_H 	H 	0.0427	0.7494	0.6785	-0.004
Mof_C 	C 	0.0858	0.7196	0.6764	-0.158
Mof_H 	H 	0.0962	0.7304	0.6572	0.093
Mof_C 	C 	0.5553	0.2325	0.6906	0.098
Mof_H 	H 	0.5427	0.2494	0.6785	-0.004
Mof_C 	C 	0.5858	0.2196	0.6764	-0.158
Mof_H 	H 	0.5962	0.2304	0.6572	0.094
Mof_C 	C 	0.5553	0.7325	0.1906	0.098
Mof_H 	H 	0.5427	0.7494	0.1785	-0.004
Mof_C 	C 	0.5858	0.7196	0.1764	-0.158
Mof_H 	H 	0.5962	0.7304	0.1572	0.094
Mof_Fe	Fe	0.25	0.25	-0	0.642
Mof_Fe	Fe	0.25	0.75	0.5	0.643
Mof_Fe	Fe	0.75	0.75	-0	0.642
Mof_Fe	Fe	0.75	0.25	0.5	0.643
Mof_Fe	Fe	0.75	0.25	-0	0.642
Mof_Fe	Fe	0.75	0.75	0.5	0.643
Mof_Fe	Fe	0.25	0.25	0.5	0.643
Mof_Fe	Fe	0.25	0.75	-0	0.642
Mof_Fe	Fe	9.3735e-34	0.25	0.25	0.642
Mof_Fe	Fe	0.5	0.25	0.75	0.643
Mof_Fe	Fe	2.81205e-33	0.75	0.75	0.642
Mof_Fe	Fe	0.5	0.75	0.25	0.643
Mof_Fe	Fe	4.5602e-33	0.75	0.25	0.642
Mof_Fe	Fe	0.5	0.75	0.75	0.643
Mof_Fe	Fe	0.5	0.25	0.25	0.643
Mof_Fe	Fe	2.81205e-33	0.25	0.75	0.642
Mof_Fe	Fe	0.25	0	0.25	0.642
Mof_Fe	Fe	0.25	0.5	0.75	0.643
Mof_Fe	Fe	0.75	0	0.75	0.642
Mof_Fe	Fe	0.75	0.5	0.25	0.643
Mof_Fe	Fe	0.25	0	0.75	0.642
Mof_Fe	Fe	0.25	0.5	0.25	0.643
Mof_Fe	Fe	0.75	0	0.25	0.642
Mof_Fe	Fe	0.75	0.5	0.75	0.643
Mof_N 	N 	0.2886	0.2114	-0	-0.198
Mof_N 	N 	0.2886	0.7114	0.5	-0.198
Mof_N 	N 	0.7114	0.7886	-0	-0.198
Mof_N 	N 	0.7114	0.2886	0.5	-0.198
Mof_N 	N 	0.2114	0.2886	-0	-0.198
Mof_N 	N 	0.7114	0.2114	-0	-0.198
Mof_N 	N 	0.7114	0.7114	0.5	-0.198
Mof_N 	N 	0.2114	0.2114	0.5	-0.198
Mof_N 	N 	0.2886	0.7886	-0	-0.198
Mof_N 	N 	0.2886	0.2886	0.5	-0.198
Mof_N 	N 	-1.0188e-33	0.2886	0.2114	-0.198
Mof_N 	N 	0.5	0.2886	0.7114	-0.198
Mof_N 	N 	-4.28892e-33	0.7114	0.7886	-0.198
Mof_N 	N 	1.08208e-33	0.2114	0.2886	-0.198
Mof_N 	N 	0.5	0.7114	0.2886	-0.198
Mof_N 	N 	-8.2645e-33	0.7114	0.2114	-0.198
Mof_N 	N 	0.5	0.7114	0.7114	-0.198
Mof_N 	N 	0.5	0.2114	0.2114	-0.198
Mof_N 	N 	2.95678e-33	0.2886	0.7886	-0.198
Mof_N 	N 	0.5	0.2886	0.2886	-0.198
Mof_N 	N 	0.2114	-3.62285e-33	0.2886	-0.198
Mof_N 	N 	0.2114	0.5	0.7886	-0.197
Mof_N 	N 	0.7886	0	0.7114	-0.198
Mof_N 	N 	0.7886	0.5	0.2114	-0.197
Mof_N 	N 	0.2886	-1.81142e-33	0.2114	-0.198
Mof_N 	N 	0.2114	0	0.7114	-0.198
Mof_N 	N 	0.2114	0.5	0.2114	-0.198
Mof_N 	N 	0.7886	-3.62285e-33	0.2886	-0.198
Mof_N 	N 	0.7886	0.5	0.7886	-0.197
Mof_N 	N 	0.2886	0.5	0.2886	-0.198
Mof_N 	N 	0.2114	0.7886	0.5	-0.197
Mof_N 	N 	0.7886	0.7114	-0	-0.198
Mof_N 	N 	0.7886	0.2114	0.5	-0.197
Mof_N 	N 	0.2114	0.7114	-0	-0.198
Mof_N 	N 	0.7886	0.2886	-0	-0.198
Mof_N 	N 	0.7886	0.7886	0.5	-0.197
Mof_N 	N 	0.2886	0	0.7886	-0.198
Mof_N 	N 	0.7114	-1.81142e-33	0.2114	-0.198
Mof_N 	N 	0.7114	0.5	0.7114	-0.198
Mof_N 	N 	0.7114	0	0.7886	-0.198
Mof_N 	N 	0.7114	0.5	0.2886	-0.198
Mof_N 	N 	0.2886	0.5	0.7114	-0.198
Mof_N 	N 	-1.18241e-32	0.2114	0.7114	-0.198
Mof_N 	N 	1.08208e-33	0.7886	0.2886	-0.198
Mof_N 	N 	0.5	0.7886	0.7886	-0.197
Mof_N 	N 	0.5	0.2114	0.7886	-0.197
Mof_N 	N 	2.66732e-33	0.7886	0.7114	-0.198
Mof_N 	N 	0.5	0.7886	0.2114	-0.197
Mof_C 	C 	0.3024	0.1845	-0	0.047
Mof_S 	S 	0.3262	0.1532	-0	-0.027
Mof_C 	C 	0.3024	0.6845	0.5	0.047
Mof_S 	S 	0.3262	0.6532	0.5	-0.026
Mof_C 	C 	0.8024	0.1845	0.5	0.047
Mof_S 	S 	0.8262	0.1532	0.5	-0.026
Mof_C 	C 	0.8024	0.6845	-0	0.047
Mof_S 	S 	0.8262	0.6532	-0	-0.026
Mof_C 	C 	0.6976	0.8155	-0	0.047
Mof_S 	S 	0.6738	0.8468	-0	-0.026
Mof_C 	C 	0.6976	0.3155	0.5	0.047
Mof_S 	S 	0.6738	0.3468	0.5	-0.026
Mof_C 	C 	0.1976	0.8155	0.5	0.047
Mof_S 	S 	0.1738	0.8468	0.5	-0.026
Mof_C 	C 	0.1976	0.3155	-0	0.047
Mof_S 	S 	0.1738	0.3468	-0	-0.027
Mof_C 	C 	0.6976	0.1845	-0	0.047
Mof_S 	S 	0.6738	0.1532	-0	-0.027
Mof_C 	C 	0.6976	0.6845	0.5	0.047
Mof_S 	S 	0.6738	0.6532	0.5	-0.026
Mof_C 	C 	0.1976	0.1845	0.5	0.047
Mof_S 	S 	0.1738	0.1532	0.5	-0.026
Mof_C 	C 	0.1976	0.6845	-0	0.047
Mof_S 	S 	0.1738	0.6532	-0	-0.027
Mof_C 	C 	0.3024	0.8155	-0	0.047
Mof_S 	S 	0.3262	0.8468	-0	-0.026
Mof_C 	C 	0.3024	0.3155	0.5	0.047
Mof_S 	S 	0.3262	0.3468	0.5	-0.026
Mof_C 	C 	0.8024	0.8155	0.5	0.047
Mof_S 	S 	0.8262	0.8468	0.5	-0.026
Mof_C 	C 	0.8024	0.3155	-0	0.047
Mof_S 	S 	0.8262	0.3468	-0	-0.026
Mof_C 	C 	-1.11966e-33	0.3024	0.1845	0.047
Mof_S 	S 	-1.23702e-33	0.3262	0.1532	-0.027
Mof_C 	C 	2.56646e-33	0.8024	0.6845	0.047
Mof_S 	S 	9.69481e-33	0.8262	0.6532	-0.026
Mof_C 	C 	0.5	0.3024	0.6845	0.047
Mof_S 	S 	0.5	0.3262	0.6532	-0.026
Mof_C 	C 	0.5	0.8024	0.1845	0.047
Mof_S 	S 	0.5	0.8262	0.1532	-0.026
Mof_C 	C 	-1.14338e-32	0.6976	0.8155	0.047
Mof_S 	S 	3.17499e-33	0.6738	0.8468	-0.026
Mof_C 	C 	-2.43991e-33	0.1976	0.3155	0.047
Mof_S 	S 	-2.32256e-33	0.1738	0.3468	-0.027
Mof_C 	C 	0.5	0.6976	0.3155	0.047
Mof_S 	S 	0.5	0.6738	0.3468	-0.026
Mof_C 	C 	0.5	0.1976	0.8155	0.047
Mof_S 	S 	0.5	0.1738	0.8468	-0.026
Mof_C 	C 	-1.11966e-33	0.6976	0.1845	0.047
Mof_S 	S 	-4.85987e-33	0.6738	0.1532	-0.027
Mof_C 	C 	2.56646e-33	0.1976	0.6845	0.047
Mof_S 	S 	2.44911e-33	0.1738	0.6532	-0.027
Mof_C 	C 	0.5	0.6976	0.6845	0.047
Mof_S 	S 	0.5	0.6738	0.6532	-0.026
Mof_C 	C 	0.5	0.1976	0.1845	0.047
Mof_S 	S 	0.5	0.1738	0.1532	-0.026
Mof_C 	C 	-4.18806e-33	0.3024	0.8155	0.047
Mof_S 	S 	1.04207e-32	0.3262	0.8468	-0.026
Mof_C 	C 	1.20515e-32	0.8024	0.3155	0.047
Mof_S 	S 	8.54599e-33	0.8262	0.3468	-0.026
Mof_C 	C 	0.5	0.3024	0.3155	0.047
Mof_S 	S 	0.5	0.3262	0.3468	-0.026
Mof_C 	C 	0.5	0.8024	0.8155	0.047
Mof_S 	S 	0.5	0.8262	0.8468	-0.026
Mof_C 	C 	0.1845	-3.62285e-33	0.3024	0.047
Mof_S 	S 	0.1532	0	0.3262	-0.027
Mof_C 	C 	0.1845	0.5	0.8024	0.047
Mof_S 	S 	0.1532	0.5	0.8262	-0.026
Mof_C 	C 	0.6845	0	0.8024	0.047
Mof_S 	S 	0.6532	0	0.8262	-0.026
Mof_C 	C 	0.6845	0.5	0.3024	0.047
Mof_S 	S 	0.6532	0.5	0.3262	-0.026
Mof_C 	C 	0.8155	0	0.6976	0.047
Mof_S 	S 	0.8468	0	0.6738	-0.026
Mof_C 	C 	0.8155	0.5	0.1976	0.047
Mof_S 	S 	0.8468	0.5	0.1738	-0.026
Mof_C 	C 	0.3155	1.81142e-33	0.1976	0.047
Mof_S 	S 	0.3468	0	0.1738	-0.027
Mof_C 	C 	0.3155	0.5	0.6976	0.047
Mof_S 	S 	0.3468	0.5	0.6738	-0.026
Mof_C 	C 	0.1845	0	0.6976	0.047
Mof_S 	S 	0.1532	0	0.6738	-0.027
Mof_C 	C 	0.1845	0.5	0.1976	0.047
Mof_S 	S 	0.1532	0.5	0.1738	-0.026
Mof_C 	C 	0.6845	1.81142e-33	0.1976	0.047
Mof_S 	S 	0.6532	0	0.1738	-0.027
Mof_C 	C 	0.6845	0.5	0.6976	0.047
Mof_S 	S 	0.6532	0.5	0.6738	-0.026
Mof_C 	C 	0.8155	-3.62285e-33	0.3024	0.047
Mof_S 	S 	0.8468	0	0.3262	-0.026
Mof_C 	C 	0.8155	0.5	0.8024	0.047
Mof_S 	S 	0.8468	0.5	0.8262	-0.026
Mof_C 	C 	0.3155	0	0.8024	0.047
Mof_S 	S 	0.3468	0	0.8262	-0.026
Mof_C 	C 	0.3155	0.5	0.3024	0.047
Mof_S 	S 	0.3468	0.5	0.3262	-0.026
Mof_C 	C 	0.1845	0.3024	-0	0.047
Mof_S 	S 	0.1532	0.3262	-0	-0.027
Mof_C 	C 	0.1845	0.8024	0.5	0.047
Mof_S 	S 	0.1532	0.8262	0.5	-0.026
Mof_C 	C 	0.6845	0.3024	0.5	0.047
Mof_S 	S 	0.6532	0.3262	0.5	-0.026
Mof_C 	C 	0.6845	0.8024	-0	0.047
Mof_S 	S 	0.6532	0.8262	-0	-0.026
Mof_C 	C 	0.8155	0.6976	-0	0.047
Mof_S 	S 	0.8468	0.6738	-0	-0.026
Mof_C 	C 	0.8155	0.1976	0.5	0.047
Mof_S 	S 	0.8468	0.1738	0.5	-0.026
Mof_C 	C 	0.3155	0.6976	0.5	0.047
Mof_S 	S 	0.3468	0.6738	0.5	-0.026
Mof_C 	C 	0.3155	0.1976	-0	0.047
Mof_S 	S 	0.3468	0.1738	-0	-0.027
Mof_C 	C 	0.1845	0.6976	-0	0.047
Mof_S 	S 	0.1532	0.6738	-0	-0.027
Mof_C 	C 	0.1845	0.1976	0.5	0.047
Mof_S 	S 	0.1532	0.1738	0.5	-0.026
Mof_C 	C 	0.6845	0.6976	0.5	0.047
Mof_S 	S 	0.6532	0.6738	0.5	-0.026
Mof_C 	C 	0.6845	0.1976	-0	0.047
Mof_S 	S 	0.6532	0.1738	-0	-0.027
Mof_C 	C 	0.8155	0.3024	-0	0.047
Mof_S 	S 	0.8468	0.3262	-0	-0.026
Mof_C 	C 	0.8155	0.8024	0.5	0.047
Mof_S 	S 	0.8468	0.8262	0.5	-0.026
Mof_C 	C 	0.3155	0.3024	0.5	0.047
Mof_S 	S 	0.3468	0.3262	0.5	-0.026
Mof_C 	C 	0.3155	0.8024	-0	0.047
Mof_S 	S 	0.3468	0.8262	-0	-0.026
Mof_C 	C 	0.3024	0	0.8155	0.047
Mof_S 	S 	0.3262	7.2457e-33	0.8468	-0.026
Mof_C 	C 	0.3024	0.5	0.3155	0.047
Mof_S 	S 	0.3262	0.5	0.3468	-0.026
Mof_C 	C 	0.8024	0	0.3155	0.047
Mof_S 	S 	0.8262	0	0.3468	-0.026
Mof_C 	C 	0.8024	0.5	0.8155	0.047
Mof_S 	S 	0.8262	0.5	0.8468	-0.026
Mof_C 	C 	0.6976	0	0.1845	0.047
Mof_S 	S 	0.6738	1.81142e-33	0.1532	-0.027
Mof_C 	C 	0.6976	0.5	0.6845	0.047
Mof_S 	S 	0.6738	0.5	0.6532	-0.026
Mof_C 	C 	0.1976	-7.2457e-33	0.6845	0.047
Mof_S 	S 	0.1738	0	0.6532	-0.027
Mof_C 	C 	0.1976	0.5	0.1845	0.047
Mof_S 	S 	0.1738	0.5	0.1532	-0.026
Mof_C 	C 	0.6976	0	0.8155	0.047
Mof_S 	S 	0.6738	7.2457e-33	0.8468	-0.026
Mof_C 	C 	0.6976	0.5	0.3155	0.047
Mof_S 	S 	0.6738	0.5	0.3468	-0.026
Mof_C 	C 	0.1976	0	0.3155	0.047
Mof_S 	S 	0.1738	0	0.3468	-0.027
Mof_C 	C 	0.1976	0.5	0.8155	0.047
Mof_S 	S 	0.1738	0.5	0.8468	-0.026
Mof_C 	C 	0.3024	0	0.1845	0.047
Mof_S 	S 	0.3262	1.81142e-33	0.1532	-0.027
Mof_C 	C 	0.3024	0.5	0.6845	0.047
Mof_S 	S 	0.3262	0.5	0.6532	-0.026
Mof_C 	C 	0.8024	-7.2457e-33	0.6845	0.047
Mof_S 	S 	0.8262	0	0.6532	-0.026
Mof_C 	C 	0.8024	0.5	0.1845	0.047
Mof_S 	S 	0.8262	0.5	0.1532	-0.026
Mof_C 	C 	-4.63012e-33	0.1845	0.6976	0.047
Mof_S 	S 	-4.71935e-33	0.1532	0.6738	-0.027
Mof_C 	C 	4.36373e-33	0.6845	0.1976	0.047
Mof_S 	S 	2.46307e-33	0.6532	0.1738	-0.027
Mof_C 	C 	0.5	0.1845	0.1976	0.047
Mof_S 	S 	0.5	0.1532	0.1738	-0.026
Mof_C 	C 	0.5	0.6845	0.6976	0.047
Mof_S 	S 	0.5	0.6532	0.6738	-0.026
Mof_C 	C 	-2.48903e-33	0.8155	0.3024	0.047
Mof_S 	S 	1.20916e-32	0.8468	0.3262	-0.026
Mof_C 	C 	1.02542e-32	0.3155	0.8024	0.047
Mof_S 	S 	3.09775e-33	0.3468	0.8262	-0.026
Mof_C 	C 	0.5	0.8155	0.8024	0.047
Mof_S 	S 	0.5	0.8468	0.8262	-0.026
Mof_C 	C 	0.5	0.3155	0.3024	0.047
Mof_S 	S 	0.5	0.3468	0.3262	-0.026
Mof_C 	C 	-2.48903e-33	0.1845	0.3024	0.047
Mof_S 	S 	-2.3998e-33	0.1532	0.3262	-0.027
Mof_C 	C 	3.00852e-33	0.6845	0.8024	0.047
Mof_S 	S 	3.09775e-33	0.6532	0.8262	-0.026
Mof_C 	C 	0.5	0.1845	0.8024	0.047
Mof_S 	S 	0.5	0.1532	0.8262	-0.026
Mof_C 	C 	0.5	0.6845	0.3024	0.047
Mof_S 	S 	0.5	0.6532	0.3262	-0.026
Mof_C 	C 	-4.63012e-33	0.8155	0.6976	0.047
Mof_S 	S 	9.77204e-33	0.8468	0.6738	-0.026
Mof_C 	C 	7.40881e-34	0.3155	0.1976	0.047
Mof_S 	S 	-1.15978e-33	0.3468	0.1738	-0.027
Mof_C 	C 	0.5	0.8155	0.1976	0.047
Mof_S 	S 	0.5	0.8468	0.1738	-0.026
Mof_C 	C 	0.5	0.3155	0.6976	0.047
Mof_S 	S 	0.5	0.3468	0.6738	-0.026
Mof_N 	N 	0.2214	0.2214	0.0435	-0.186
Mof_C 	C 	0.1908	0.1908	0.1003	0.086
Mof_C 	C 	0.1737	0.1737	0.1326	0.098
Mof_N 	N 	0.2214	0.7214	0.5435	-0.186
Mof_C 	C 	0.1908	0.6908	0.6003	0.086
Mof_C 	C 	0.1737	0.6737	0.6326	0.098
Mof_N 	N 	0.7214	0.2214	0.5435	-0.186
Mof_C 	C 	0.6908	0.1908	0.6003	0.086
Mof_C 	C 	0.6737	0.1737	0.6326	0.098
Mof_N 	N 	0.7214	0.7214	0.0435	-0.186
Mof_C 	C 	0.6908	0.6908	0.1003	0.086
Mof_C 	C 	0.6737	0.6737	0.1326	0.098
Mof_N 	N 	0.7786	0.7786	0.0435	-0.186
Mof_C 	C 	0.8092	0.8092	0.1003	0.086
Mof_C 	C 	0.8263	0.8263	0.1326	0.098
Mof_N 	N 	0.7786	0.2786	0.5435	-0.186
Mof_C 	C 	0.8092	0.3092	0.6003	0.086
Mof_C 	C 	0.8263	0.3263	0.6326	0.098
Mof_N 	N 	0.2786	0.7786	0.5435	-0.186
Mof_C 	C 	0.3092	0.8092	0.6003	0.086
Mof_C 	C 	0.3263	0.8263	0.6326	0.098
Mof_N 	N 	0.2786	0.2786	0.0435	-0.186
Mof_C 	C 	0.3092	0.3092	0.1003	0.086
Mof_C 	C 	0.3263	0.3263	0.1326	0.098
Mof_N 	N 	0.7786	0.2214	0.9565	-0.185
Mof_C 	C 	0.8092	0.1908	0.8997	0.086
Mof_C 	C 	0.8263	0.1737	0.8674	0.098
Mof_N 	N 	0.7786	0.7214	0.4565	-0.186
Mof_C 	C 	0.8092	0.6908	0.3997	0.086
Mof_C 	C 	0.8263	0.6737	0.3674	0.098
Mof_N 	N 	0.2786	0.2214	0.4565	-0.186
Mof_C 	C 	0.3092	0.1908	0.3997	0.086
Mof_C 	C 	0.3263	0.1737	0.3674	0.098
Mof_N 	N 	0.2786	0.7214	0.9565	-0.185
Mof_C 	C 	0.3092	0.6908	0.8997	0.086
Mof_C 	C 	0.3263	0.6737	0.8674	0.098
Mof_N 	N 	0.2214	0.7786	0.9565	-0.185
Mof_C 	C 	0.1908	0.8092	0.8997	0.086
Mof_C 	C 	0.1737	0.8263	0.8674	0.098
Mof_N 	N 	0.2214	0.2786	0.4565	-0.186
Mof_C 	C 	0.1908	0.3092	0.3997	0.086
Mof_C 	C 	0.1737	0.3263	0.3674	0.098
Mof_N 	N 	0.7214	0.7786	0.4565	-0.186
Mof_C 	C 	0.6908	0.8092	0.3997	0.086
Mof_C 	C 	0.6737	0.8263	0.3674	0.098
Mof_N 	N 	0.7214	0.2786	0.9565	-0.185
Mof_C 	C 	0.6908	0.3092	0.8997	0.086
Mof_C 	C 	0.6737	0.3263	0.8674	0.098
Mof_N 	N 	0.0435	0.2214	0.2214	-0.186
Mof_C 	C 	0.1003	0.1908	0.1908	0.086
Mof_C 	C 	0.1326	0.1737	0.1737	0.098
Mof_N 	N 	0.0435	0.7214	0.7214	-0.186
Mof_C 	C 	0.1003	0.6908	0.6908	0.086
Mof_C 	C 	0.1326	0.6737	0.6737	0.098
Mof_N 	N 	0.5435	0.2214	0.7214	-0.186
Mof_C 	C 	0.6003	0.1908	0.6908	0.086
Mof_C 	C 	0.6326	0.1737	0.6737	0.098
Mof_N 	N 	0.5435	0.7214	0.2214	-0.186
Mof_C 	C 	0.6003	0.6908	0.1908	0.086
Mof_C 	C 	0.6326	0.6737	0.1737	0.098
Mof_N 	N 	0.0435	0.7786	0.7786	-0.186
Mof_C 	C 	0.1003	0.8092	0.8092	0.086
Mof_C 	C 	0.1326	0.8263	0.8263	0.098
Mof_N 	N 	0.0435	0.2786	0.2786	-0.186
Mof_C 	C 	0.1003	0.3092	0.3092	0.086
Mof_C 	C 	0.1326	0.3263	0.3263	0.098
Mof_N 	N 	0.5435	0.7786	0.2786	-0.186
Mof_C 	C 	0.6003	0.8092	0.3092	0.086
Mof_C 	C 	0.6326	0.8263	0.3263	0.098
Mof_N 	N 	0.5435	0.2786	0.7786	-0.186
Mof_C 	C 	0.6003	0.3092	0.8092	0.086
Mof_C 	C 	0.6326	0.3263	0.8263	0.098
Mof_N 	N 	0.9565	0.7786	0.2214	-0.185
Mof_C 	C 	0.8997	0.8092	0.1908	0.086
Mof_C 	C 	0.8674	0.8263	0.1737	0.098
Mof_N 	N 	0.9565	0.2786	0.7214	-0.185
Mof_C 	C 	0.8997	0.3092	0.6908	0.086
Mof_C 	C 	0.8674	0.3263	0.6737	0.098
Mof_N 	N 	0.4565	0.7786	0.7214	-0.186
Mof_C 	C 	0.3997	0.8092	0.6908	0.086
Mof_C 	C 	0.3674	0.8263	0.6737	0.098
Mof_N 	N 	0.4565	0.2786	0.2214	-0.186
Mof_C 	C 	0.3997	0.3092	0.1908	0.086
Mof_C 	C 	0.3674	0.3263	0.1737	0.098
Mof_N 	N 	0.9565	0.2214	0.7786	-0.185
Mof_C 	C 	0.8997	0.1908	0.8092	0.086
Mof_C 	C 	0.8674	0.1737	0.8263	0.098
Mof_N 	N 	0.9565	0.7214	0.2786	-0.185
Mof_C 	C 	0.8997	0.6908	0.3092	0.086
Mof_C 	C 	0.8674	0.6737	0.3263	0.098
Mof_N 	N 	0.4565	0.2214	0.2786	-0.186
Mof_C 	C 	0.3997	0.1908	0.3092	0.086
Mof_C 	C 	0.3674	0.1737	0.3263	0.098
Mof_N 	N 	0.4565	0.7214	0.7786	-0.186
Mof_C 	C 	0.3997	0.6908	0.8092	0.086
Mof_C 	C 	0.3674	0.6737	0.8263	0.098
Mof_N 	N 	0.2214	0.0435	0.2214	-0.186
Mof_C 	C 	0.1908	0.1003	0.1908	0.086
Mof_C 	C 	0.1737	0.1326	0.1737	0.098
Mof_N 	N 	0.2214	0.5435	0.7214	-0.186
Mof_C 	C 	0.1908	0.6003	0.6908	0.086
Mof_C 	C 	0.1737	0.6326	0.6737	0.098
Mof_N 	N 	0.7214	0.0435	0.7214	-0.186
Mof_C 	C 	0.6908	0.1003	0.6908	0.086
Mof_C 	C 	0.6737	0.1326	0.6737	0.098
Mof_N 	N 	0.7214	0.5435	0.2214	-0.186
Mof_C 	C 	0.6908	0.6003	0.1908	0.086
Mof_C 	C 	0.6737	0.6326	0.1737	0.098
Mof_N 	N 	0.7786	0.0435	0.7786	-0.186
Mof_C 	C 	0.8092	0.1003	0.8092	0.086
Mof_C 	C 	0.8263	0.1326	0.8263	0.098
Mof_N 	N 	0.7786	0.5435	0.2786	-0.186
Mof_C 	C 	0.8092	0.6003	0.3092	0.086
Mof_C 	C 	0.8263	0.6326	0.3263	0.098
Mof_N 	N 	0.2786	0.0435	0.2786	-0.186
Mof_C 	C 	0.3092	0.1003	0.3092	0.086
Mof_C 	C 	0.3263	0.1326	0.3263	0.098
Mof_N 	N 	0.2786	0.5435	0.7786	-0.186
Mof_C 	C 	0.3092	0.6003	0.8092	0.086
Mof_C 	C 	0.3263	0.6326	0.8263	0.098
Mof_N 	N 	0.2214	0.9565	0.7786	-0.185
Mof_C 	C 	0.1908	0.8997	0.8092	0.086
Mof_C 	C 	0.1737	0.8674	0.8263	0.098
Mof_N 	N 	0.2214	0.4565	0.2786	-0.186
Mof_C 	C 	0.1908	0.3997	0.3092	0.086
Mof_C 	C 	0.1737	0.3674	0.3263	0.098
Mof_N 	N 	0.7214	0.9565	0.2786	-0.185
Mof_C 	C 	0.6908	0.8997	0.3092	0.086
Mof_C 	C 	0.6737	0.8674	0.3263	0.098
Mof_N 	N 	0.7214	0.4565	0.7786	-0.186
Mof_C 	C 	0.6908	0.3997	0.8092	0.086
Mof_C 	C 	0.6737	0.3674	0.8263	0.098
Mof_N 	N 	0.7786	0.9565	0.2214	-0.185
Mof_C 	C 	0.8092	0.8997	0.1908	0.086
Mof_C 	C 	0.8263	0.8674	0.1737	0.098
Mof_N 	N 	0.7786	0.4565	0.7214	-0.186
Mof_C 	C 	0.8092	0.3997	0.6908	0.086
Mof_C 	C 	0.8263	0.3674	0.6737	0.098
Mof_N 	N 	0.2786	0.9565	0.7214	-0.185
Mof_C 	C 	0.3092	0.8997	0.6908	0.086
Mof_C 	C 	0.3263	0.8674	0.6737	0.098
Mof_N 	N 	0.2786	0.4565	0.2214	-0.186
Mof_C 	C 	0.3092	0.3997	0.1908	0.086
Mof_C 	C 	0.3263	0.3674	0.1737	0.098
Mof_N 	N 	0.2214	0.2214	0.9565	-0.185
Mof_C 	C 	0.1908	0.1908	0.8997	0.086
Mof_C 	C 	0.1737	0.1737	0.8674	0.098
Mof_N 	N 	0.2214	0.7214	0.4565	-0.186
Mof_C 	C 	0.1908	0.6908	0.3997	0.086
Mof_C 	C 	0.1737	0.6737	0.3674	0.098
Mof_N 	N 	0.7214	0.2214	0.4565	-0.186
Mof_C 	C 	0.6908	0.1908	0.3997	0.086
Mof_C 	C 	0.6737	0.1737	0.3674	0.098
Mof_N 	N 	0.7214	0.7214	0.9565	-0.185
Mof_C 	C 	0.6908	0.6908	0.8997	0.086
Mof_C 	C 	0.6737	0.6737	0.8674	0.098
Mof_N 	N 	0.7786	0.7786	0.9565	-0.185
Mof_C 	C 	0.8092	0.8092	0.8997	0.086
Mof_C 	C 	0.8263	0.8263	0.8674	0.098
Mof_N 	N 	0.7786	0.2786	0.4565	-0.186
Mof_C 	C 	0.8092	0.3092	0.3997	0.086
Mof_C 	C 	0.8263	0.3263	0.3674	0.098
Mof_N 	N 	0.2786	0.7786	0.4565	-0.186
Mof_C 	C 	0.3092	0.8092	0.3997	0.086
Mof_C 	C 	0.3263	0.8263	0.3674	0.098
Mof_N 	N 	0.2786	0.2786	0.9565	-0.185
Mof_C 	C 	0.3092	0.3092	0.8997	0.086
Mof_C 	C 	0.3263	0.3263	0.8674	0.098
Mof_N 	N 	0.2214	0.7786	0.0435	-0.186
Mof_C 	C 	0.1908	0.8092	0.1003	0.086
Mof_C 	C 	0.1737	0.8263	0.1326	0.098
Mof_N 	N 	0.2214	0.2786	0.5435	-0.186
Mof_C 	C 	0.1908	0.3092	0.6003	0.086
Mof_C 	C 	0.1737	0.3263	0.6326	0.098
Mof_N 	N 	0.7214	0.7786	0.5435	-0.186
Mof_C 	C 	0.6908	0.8092	0.6003	0.086
Mof_C 	C 	0.6737	0.8263	0.6326	0.098
Mof_N 	N 	0.7214	0.2786	0.0435	-0.186
Mof_C 	C 	0.6908	0.3092	0.1003	0.086
Mof_C 	C 	0.6737	0.3263	0.1326	0.098
Mof_N 	N 	0.7786	0.2214	0.0435	-0.186
Mof_C 	C 	0.8092	0.1908	0.1003	0.086
Mof_C 	C 	0.8263	0.1737	0.1326	0.098
Mof_N 	N 	0.7786	0.7214	0.5435	-0.186
Mof_C 	C 	0.8092	0.6908	0.6003	0.086
Mof_C 	C 	0.8263	0.6737	0.6326	0.098
Mof_N 	N 	0.2786	0.2214	0.5435	-0.186
Mof_C 	C 	0.3092	0.1908	0.6003	0.086
Mof_C 	C 	0.3263	0.1737	0.6326	0.098
Mof_N 	N 	0.2786	0.7214	0.0435	-0.186
Mof_C 	C 	0.3092	0.6908	0.1003	0.086
Mof_C 	C 	0.3263	0.6737	0.1326	0.098
Mof_N 	N 	0.2214	0.0435	0.7786	-0.186
Mof_C 	C 	0.1908	0.1003	0.8092	0.086
Mof_C 	C 	0.1737	0.1326	0.8263	0.098
Mof_N 	N 	0.2214	0.5435	0.2786	-0.186
Mof_C 	C 	0.1908	0.6003	0.3092	0.086
Mof_C 	C 	0.1737	0.6326	0.3263	0.098
Mof_N 	N 	0.7214	0.0435	0.2786	-0.186
Mof_C 	C 	0.6908	0.1003	0.3092	0.086
Mof_C 	C 	0.6737	0.1326	0.3263	0.098
Mof_N 	N 	0.7214	0.5435	0.7786	-0.186
Mof_C 	C 	0.6908	0.6003	0.8092	0.086
Mof_C 	C 	0.6737	0.6326	0.8263	0.098
Mof_N 	N 	0.7786	0.0435	0.2214	-0.186
Mof_C 	C 	0.8092	0.1003	0.1908	0.086
Mof_C 	C 	0.8263	0.1326	0.1737	0.098
Mof_N 	N 	0.7786	0.5435	0.7214	-0.186
Mof_C 	C 	0.8092	0.6003	0.6908	0.086
Mof_C 	C 	0.8263	0.6326	0.6737	0.098
Mof_N 	N 	0.2786	0.0435	0.7214	-0.186
Mof_C 	C 	0.3092	0.1003	0.6908	0.086
Mof_C 	C 	0.3263	0.1326	0.6737	0.098
Mof_N 	N 	0.2786	0.5435	0.2214	-0.186
Mof_C 	C 	0.3092	0.6003	0.1908	0.086
Mof_C 	C 	0.3263	0.6326	0.1737	0.098
Mof_N 	N 	0.7786	0.9565	0.7786	-0.185
Mof_C 	C 	0.8092	0.8997	0.8092	0.086
Mof_C 	C 	0.8263	0.8674	0.8263	0.098
Mof_N 	N 	0.7786	0.4565	0.2786	-0.186
Mof_C 	C 	0.8092	0.3997	0.3092	0.086
Mof_C 	C 	0.8263	0.3674	0.3263	0.098
Mof_N 	N 	0.2786	0.9565	0.2786	-0.185
Mof_C 	C 	0.3092	0.8997	0.3092	0.086
Mof_C 	C 	0.3263	0.8674	0.3263	0.098
Mof_N 	N 	0.2786	0.4565	0.7786	-0.186
Mof_C 	C 	0.3092	0.3997	0.8092	0.086
Mof_C 	C 	0.3263	0.3674	0.8263	0.098
Mof_N 	N 	0.2214	0.9565	0.2214	-0.185
Mof_C 	C 	0.1908	0.8997	0.1908	0.086
Mof_C 	C 	0.1737	0.8674	0.1737	0.098
Mof_N 	N 	0.2214	0.4565	0.7214	-0.186
Mof_C 	C 	0.1908	0.3997	0.6908	0.086
Mof_C 	C 	0.1737	0.3674	0.6737	0.098
Mof_N 	N 	0.7214	0.9565	0.7214	-0.185
Mof_C 	C 	0.6908	0.8997	0.6908	0.086
Mof_C 	C 	0.6737	0.8674	0.6737	0.098
Mof_N 	N 	0.7214	0.4565	0.2214	-0.186
Mof_C 	C 	0.6908	0.3997	0.1908	0.086
Mof_C 	C 	0.6737	0.3674	0.1737	0.098
Mof_N 	N 	0.0435	0.2214	0.7786	-0.186
Mof_C 	C 	0.1003	0.1908	0.8092	0.086
Mof_C 	C 	0.1326	0.1737	0.8263	0.098
Mof_N 	N 	0.0435	0.7214	0.2786	-0.186
Mof_C 	C 	0.1003	0.6908	0.3092	0.086
Mof_C 	C 	0.1326	0.6737	0.3263	0.098
Mof_N 	N 	0.5435	0.2214	0.2786	-0.186
Mof_C 	C 	0.6003	0.1908	0.3092	0.086
Mof_C 	C 	0.6326	0.1737	0.3263	0.098
Mof_N 	N 	0.5435	0.7214	0.7786	-0.186
Mof_C 	C 	0.6003	0.6908	0.8092	0.086
Mof_C 	C 	0.6326	0.6737	0.8263	0.098
Mof_N 	N 	0.0435	0.7786	0.2214	-0.186
Mof_C 	C 	0.1003	0.8092	0.1908	0.086
Mof_C 	C 	0.1326	0.8263	0.1737	0.098
Mof_N 	N 	0.0435	0.2786	0.7214	-0.186
Mof_C 	C 	0.1003	0.3092	0.6908	0.086
Mof_C 	C 	0.1326	0.3263	0.6737	0.098
Mof_N 	N 	0.5435	0.7786	0.7214	-0.186
Mof_C 	C 	0.6003	0.8092	0.6908	0.086
Mof_C 	C 	0.6326	0.8263	0.6737	0.098
Mof_N 	N 	0.5435	0.2786	0.2214	-0.186
Mof_C 	C 	0.6003	0.3092	0.1908	0.086
Mof_C 	C 	0.6326	0.3263	0.1737	0.098
Mof_N 	N 	0.9565	0.2214	0.2214	-0.185
Mof_C 	C 	0.8997	0.1908	0.1908	0.086
Mof_C 	C 	0.8674	0.1737	0.1737	0.098
Mof_N 	N 	0.9565	0.7214	0.7214	-0.185
Mof_C 	C 	0.8997	0.6908	0.6908	0.086
Mof_C 	C 	0.8674	0.6737	0.6737	0.098
Mof_N 	N 	0.4565	0.2214	0.7214	-0.186
Mof_C 	C 	0.3997	0.1908	0.6908	0.086
Mof_C 	C 	0.3674	0.1737	0.6737	0.098
Mof_N 	N 	0.4565	0.7214	0.2214	-0.186
Mof_C 	C 	0.3997	0.6908	0.1908	0.086
Mof_C 	C 	0.3674	0.6737	0.1737	0.098
Mof_N 	N 	0.9565	0.7786	0.7786	-0.185
Mof_C 	C 	0.8997	0.8092	0.8092	0.086
Mof_C 	C 	0.8674	0.8263	0.8263	0.098
Mof_N 	N 	0.9565	0.2786	0.2786	-0.185
Mof_C 	C 	0.8997	0.3092	0.3092	0.086
Mof_C 	C 	0.8674	0.3263	0.3263	0.098
Mof_N 	N 	0.4565	0.7786	0.2786	-0.186
Mof_C 	C 	0.3997	0.8092	0.3092	0.086
Mof_C 	C 	0.3674	0.8263	0.3263	0.098
Mof_N 	N 	0.4565	0.2786	0.7786	-0.186
Mof_C 	C 	0.3997	0.3092	0.8092	0.086
Mof_C 	C 	0.3674	0.3263	0.8263	0.098
Mof_N 	N 	0.14469	0.188	0.14469	-0.141
Mof_N 	N 	0.14469	0.688	0.64469	-0.141
Mof_N 	N 	0.64469	0.188	0.64469	-0.141
Mof_N 	N 	0.64469	0.688	0.14469	-0.141
Mof_N 	N 	0.85531	0.812	0.14469	-0.141
Mof_N 	N 	0.85531	0.312	0.64469	-0.141
Mof_N 	N 	0.35531	0.812	0.64469	-0.141
Mof_N 	N 	0.35531	0.312	0.14469	-0.141
Mof_N 	N 	0.85531	0.188	0.85531	-0.141
Mof_N 	N 	0.85531	0.688	0.35531	-0.141
Mof_N 	N 	0.35531	0.188	0.35531	-0.141
Mof_N 	N 	0.35531	0.688	0.85531	-0.141
Mof_N 	N 	0.14469	0.812	0.85531	-0.141
Mof_N 	N 	0.14469	0.312	0.35531	-0.141
Mof_N 	N 	0.64469	0.812	0.35531	-0.141
Mof_N 	N 	0.64469	0.312	0.85531	-0.141
Mof_N 	N 	0.14469	0.14469	0.188	-0.141
Mof_N 	N 	0.14469	0.64469	0.688	-0.141
Mof_N 	N 	0.64469	0.14469	0.688	-0.141
Mof_N 	N 	0.64469	0.64469	0.188	-0.141
Mof_N 	N 	0.14469	0.85531	0.812	-0.141
Mof_N 	N 	0.14469	0.35531	0.312	-0.141
Mof_N 	N 	0.64469	0.85531	0.312	-0.141
Mof_N 	N 	0.64469	0.35531	0.812	-0.141
Mof_N 	N 	0.85531	0.85531	0.188	-0.141
Mof_N 	N 	0.85531	0.35531	0.688	-0.141
Mof_N 	N 	0.35531	0.85531	0.688	-0.141
Mof_N 	N 	0.35531	0.35531	0.188	-0.141
Mof_N 	N 	0.85531	0.14469	0.812	-0.141
Mof_N 	N 	0.85531	0.64469	0.312	-0.141
Mof_N 	N 	0.35531	0.14469	0.312	-0.141
Mof_N 	N 	0.35531	0.64469	0.812	-0.141
Mof_N 	N 	0.188	0.14469	0.14469	-0.141
Mof_N 	N 	0.188	0.64469	0.64469	-0.141
Mof_N 	N 	0.688	0.14469	0.64469	-0.141
Mof_N 	N 	0.688	0.64469	0.14469	-0.141
Mof_N 	N 	0.812	0.14469	0.85531	-0.141
Mof_N 	N 	0.812	0.64469	0.35531	-0.141
Mof_N 	N 	0.312	0.14469	0.35531	-0.141
Mof_N 	N 	0.312	0.64469	0.85531	-0.141
Mof_N 	N 	0.188	0.85531	0.85531	-0.141
Mof_N 	N 	0.188	0.35531	0.35531	-0.141
Mof_N 	N 	0.688	0.85531	0.35531	-0.141
Mof_N 	N 	0.688	0.35531	0.85531	-0.141
Mof_N 	N 	0.812	0.85531	0.14469	-0.141
Mof_N 	N 	0.812	0.35531	0.64469	-0.141
Mof_N 	N 	0.312	0.85531	0.64469	-0.141
Mof_N 	N 	0.312	0.35531	0.14469	-0.141
Mof_N 	N 	0.188	0.14469	0.85531	-0.141
Mof_N 	N 	0.188	0.64469	0.35531	-0.141
Mof_N 	N 	0.688	0.14469	0.35531	-0.141
Mof_N 	N 	0.688	0.64469	0.85531	-0.141
Mof_N 	N 	0.812	0.85531	0.85531	-0.141
Mof_N 	N 	0.812	0.35531	0.35531	-0.141
Mof_N 	N 	0.312	0.85531	0.35531	-0.141
Mof_N 	N 	0.312	0.35531	0.85531	-0.141
Mof_N 	N 	0.188	0.85531	0.14469	-0.141
Mof_N 	N 	0.188	0.35531	0.64469	-0.141
Mof_N 	N 	0.688	0.85531	0.64469	-0.141
Mof_N 	N 	0.688	0.35531	0.14469	-0.141
Mof_N 	N 	0.812	0.14469	0.14469	-0.141
Mof_N 	N 	0.812	0.64469	0.64469	-0.141
Mof_N 	N 	0.312	0.14469	0.64469	-0.141
Mof_N 	N 	0.312	0.64469	0.14469	-0.141
Mof_N 	N 	0.14469	0.14469	0.812	-0.141
Mof_N 	N 	0.14469	0.64469	0.312	-0.141
Mof_N 	N 	0.64469	0.14469	0.312	-0.141
Mof_N 	N 	0.64469	0.64469	0.812	-0.141
Mof_N 	N 	0.85531	0.14469	0.188	-0.141
Mof_N 	N 	0.85531	0.64469	0.688	-0.141
Mof_N 	N 	0.35531	0.14469	0.688	-0.141
Mof_N 	N 	0.35531	0.64469	0.188	-0.141
Mof_N 	N 	0.85531	0.85531	0.812	-0.141
Mof_N 	N 	0.85531	0.35531	0.312	-0.141
Mof_N 	N 	0.35531	0.85531	0.312	-0.141
Mof_N 	N 	0.35531	0.35531	0.812	-0.141
Mof_N 	N 	0.14469	0.85531	0.188	-0.141
Mof_N 	N 	0.14469	0.35531	0.688	-0.141
Mof_N 	N 	0.64469	0.85531	0.688	-0.141
Mof_N 	N 	0.64469	0.35531	0.188	-0.141
Mof_N 	N 	0.14469	0.188	0.85531	-0.141
Mof_N 	N 	0.14469	0.688	0.35531	-0.141
Mof_N 	N 	0.64469	0.188	0.35531	-0.141
Mof_N 	N 	0.64469	0.688	0.85531	-0.141
Mof_N 	N 	0.14469	0.812	0.14469	-0.141
Mof_N 	N 	0.14469	0.312	0.64469	-0.141
Mof_N 	N 	0.64469	0.812	0.64469	-0.141
Mof_N 	N 	0.64469	0.312	0.14469	-0.141
Mof_N 	N 	0.85531	0.188	0.14469	-0.141
Mof_N 	N 	0.85531	0.688	0.64469	-0.141
Mof_N 	N 	0.35531	0.188	0.64469	-0.141
Mof_N 	N 	0.35531	0.688	0.14469	-0.141
Mof_N 	N 	0.85531	0.812	0.85531	-0.141
Mof_N 	N 	0.85531	0.312	0.35531	-0.141
Mof_N 	N 	0.35531	0.812	0.35531	-0.141
Mof_N 	N 	0.35531	0.312	0.85531	-0.141
_end
