data_functionalizedCrystal
_audit_creation_method	'EQeq! by Chris Wilmer'
_symmetry_space_group_name_H-M	'P1'
_symmetry_Int_Tables_number	1
_symmetry_cell_setting	triclinic
loop_
_symmetry_equiv_pos_as_xyz
  x,y,z
_cell_length_a	13.959
_cell_length_b	13.959
_cell_length_c	20.0475
_cell_angle_alpha	90
_cell_angle_beta	90
_cell_angle_gamma	90
loop_
_atom_site_label
_atom_site_type_symbol
_atom_site_fract_x
_atom_site_fract_y
_atom_site_fract_z
_atom_site_charge
Mof_N 	N 	0.8945	0.1786	0.0685	-0.158
Mof_O 	O 	0.9112	0.2031	0.0732	-0.273
Mof_C 	C 	0.8787	0.2313	0.1206	-0.165
Mof_H 	H 	0.9147	0.285	0.1316	0.139
Mof_C 	C 	0.8435	0.2752	0.1918	0.295
Mof_H 	H 	0.862	0.343	0.23	0.159
Mof_H 	H 	0.8974	0.3037	0.173	-0.133
Mof_N 	N 	0.3945	0.6786	0.5685	-0.168
Mof_O 	O 	0.4112	0.7031	0.5732	-0.26
Mof_C 	C 	0.3787	0.7313	0.6206	-0.161
Mof_H 	H 	0.4147	0.785	0.6316	0.136
Mof_C 	C 	0.3435	0.7752	0.6918	0.291
Mof_H 	H 	0.362	0.843	0.73	0.159
Mof_H 	H 	0.3974	0.8037	0.673	-0.13
Mof_N 	N 	0.1055	0.8214	0.0685	-0.196
Mof_O 	O 	0.0888	0.7969	0.0732	-0.249
Mof_C 	C 	0.1213	0.7687	0.1206	-0.177
Mof_H 	H 	0.0853	0.715	0.1316	0.124
Mof_C 	C 	0.1565	0.7248	0.1918	0.295
Mof_H 	H 	0.138	0.657	0.23	0.15
Mof_H 	H 	0.1026	0.6963	0.173	-0.142
Mof_N 	N 	0.6055	0.3214	0.5685	-0.174
Mof_O 	O 	0.5888	0.2969	0.5732	-0.256
Mof_C 	C 	0.6213	0.2687	0.6206	-0.163
Mof_H 	H 	0.5853	0.215	0.6316	0.131
Mof_C 	C 	0.6565	0.2248	0.6918	0.289
Mof_H 	H 	0.638	0.157	0.73	0.152
Mof_H 	H 	0.6026	0.1963	0.673	-0.134
Mof_N 	N 	0.8214	0.8945	0.0685	-0.167
Mof_O 	O 	0.7969	0.9112	0.0732	-0.256
Mof_C 	C 	0.7687	0.8787	0.1206	-0.158
Mof_H 	H 	0.715	0.9147	0.1316	0.134
Mof_C 	C 	0.7248	0.8435	0.1918	0.292
Mof_H 	H 	0.657	0.862	0.23	0.161
Mof_H 	H 	0.6963	0.8974	0.173	-0.13
Mof_N 	N 	0.3214	0.3945	0.5685	-0.173
Mof_O 	O 	0.2969	0.4112	0.5732	-0.259
Mof_C 	C 	0.2687	0.3787	0.6206	-0.166
Mof_H 	H 	0.215	0.4147	0.6316	0.132
Mof_C 	C 	0.2248	0.3435	0.6918	0.29
Mof_H 	H 	0.157	0.362	0.73	0.151
Mof_H 	H 	0.1963	0.3974	0.673	-0.135
Mof_N 	N 	0.1786	0.1055	0.0685	-0.188
Mof_O 	O 	0.2031	0.0888	0.0732	-0.267
Mof_C 	C 	0.2313	0.1213	0.1206	-0.184
Mof_H 	H 	0.285	0.0853	0.1316	0.128
Mof_C 	C 	0.2752	0.1565	0.1918	0.298
Mof_H 	H 	0.343	0.138	0.23	0.149
Mof_H 	H 	0.3037	0.1026	0.173	-0.145
Mof_N 	N 	0.6786	0.6055	0.5685	-0.169
Mof_O 	O 	0.7031	0.5888	0.5732	-0.257
Mof_C 	C 	0.7313	0.6213	0.6206	-0.157
Mof_H 	H 	0.785	0.5853	0.6316	0.135
Mof_C 	C 	0.7752	0.6565	0.6918	0.291
Mof_H 	H 	0.843	0.638	0.73	0.16
Mof_H 	H 	0.8037	0.6026	0.673	-0.129
Mof_N 	N 	0.1055	0.1786	0.9315	-0.153
Mof_O 	O 	0.0888	0.2031	0.9268	-0.238
Mof_C 	C 	0.1213	0.2313	0.8794	-0.163
Mof_H 	H 	0.0853	0.285	0.8684	0.135
Mof_C 	C 	0.1565	0.2752	0.8082	0.278
Mof_H 	H 	0.138	0.343	0.77	0.155
Mof_H 	H 	0.1026	0.3037	0.827	-0.132
Mof_N 	N 	0.6055	0.6786	0.4315	-0.171
Mof_O 	O 	0.5888	0.7031	0.4268	-0.257
Mof_C 	C 	0.6213	0.7313	0.3794	-0.157
Mof_H 	H 	0.5853	0.785	0.3684	0.134
Mof_C 	C 	0.6565	0.7752	0.3082	0.287
Mof_H 	H 	0.638	0.843	0.27	0.163
Mof_H 	H 	0.6026	0.8037	0.327	-0.13
Mof_N 	N 	0.8945	0.8214	0.9315	-0.134
Mof_O 	O 	0.9112	0.7969	0.9268	-0.229
Mof_C 	C 	0.8787	0.7687	0.8794	-0.139
Mof_H 	H 	0.9147	0.715	0.8684	0.141
Mof_C 	C 	0.8435	0.7248	0.8082	0.274
Mof_H 	H 	0.862	0.657	0.77	0.167
Mof_H 	H 	0.8974	0.6963	0.827	-0.118
Mof_N 	N 	0.3945	0.3214	0.4315	-0.174
Mof_O 	O 	0.4112	0.2969	0.4268	-0.258
Mof_C 	C 	0.3787	0.2687	0.3794	-0.166
Mof_H 	H 	0.4147	0.215	0.3684	0.131
Mof_C 	C 	0.3435	0.2248	0.3082	0.285
Mof_H 	H 	0.362	0.157	0.27	0.154
Mof_H 	H 	0.3974	0.1963	0.327	-0.136
Mof_N 	N 	0.1786	0.8945	0.9315	-0.126
Mof_O 	O 	0.2031	0.9112	0.9268	-0.245
Mof_C 	C 	0.2313	0.8787	0.8794	-0.146
Mof_H 	H 	0.285	0.9147	0.8684	0.145
Mof_C 	C 	0.2752	0.8435	0.8082	0.276
Mof_H 	H 	0.343	0.862	0.77	0.165
Mof_H 	H 	0.3037	0.8974	0.827	-0.121
Mof_N 	N 	0.6786	0.3945	0.4315	-0.17
Mof_O 	O 	0.7031	0.4112	0.4268	-0.26
Mof_C 	C 	0.7313	0.3787	0.3794	-0.161
Mof_H 	H 	0.785	0.4147	0.3684	0.135
Mof_C 	C 	0.7752	0.3435	0.3082	0.287
Mof_H 	H 	0.843	0.362	0.27	0.162
Mof_H 	H 	0.8037	0.3974	0.327	-0.131
Mof_N 	N 	0.8214	0.1055	0.9315	-0.161
Mof_O 	O 	0.7969	0.0888	0.9268	-0.222
Mof_C 	C 	0.7687	0.1213	0.8794	-0.157
Mof_H 	H 	0.715	0.0853	0.8684	0.131
Mof_C 	C 	0.7248	0.1565	0.8082	0.276
Mof_H 	H 	0.657	0.138	0.77	0.157
Mof_H 	H 	0.6963	0.1026	0.827	-0.129
Mof_N 	N 	0.3214	0.6055	0.4315	-0.176
Mof_O 	O 	0.2969	0.5888	0.4268	-0.255
Mof_C 	C 	0.2687	0.6213	0.3794	-0.162
Mof_H 	H 	0.215	0.5853	0.3684	0.13
Mof_C 	C 	0.2248	0.6565	0.3082	0.285
Mof_H 	H 	0.157	0.638	0.27	0.155
Mof_H 	H 	0.1963	0.6026	0.327	-0.135
Mof_N 	N 	0.1055	0.8214	0.9315	-0.161
Mof_O 	O 	0.0888	0.7969	0.9268	-0.222
Mof_C 	C 	0.1213	0.7687	0.8794	-0.157
Mof_H 	H 	0.0853	0.715	0.8684	0.131
Mof_C 	C 	0.1565	0.7248	0.8082	0.276
Mof_H 	H 	0.138	0.657	0.77	0.157
Mof_H 	H 	0.1026	0.6963	0.827	-0.129
Mof_N 	N 	0.6055	0.3214	0.4315	-0.176
Mof_O 	O 	0.5888	0.2969	0.4268	-0.255
Mof_C 	C 	0.6213	0.2687	0.3794	-0.162
Mof_H 	H 	0.5853	0.215	0.3684	0.13
Mof_C 	C 	0.6565	0.2248	0.3082	0.285
Mof_H 	H 	0.638	0.157	0.27	0.155
Mof_H 	H 	0.6026	0.1963	0.327	-0.135
Mof_N 	N 	0.8945	0.1786	0.9315	-0.126
Mof_O 	O 	0.9112	0.2031	0.9268	-0.245
Mof_C 	C 	0.8787	0.2313	0.8794	-0.146
Mof_H 	H 	0.9147	0.285	0.8684	0.145
Mof_C 	C 	0.8435	0.2752	0.8082	0.276
Mof_H 	H 	0.862	0.343	0.77	0.165
Mof_H 	H 	0.8974	0.3037	0.827	-0.121
Mof_N 	N 	0.3945	0.6786	0.4315	-0.17
Mof_O 	O 	0.4112	0.7031	0.4268	-0.26
Mof_C 	C 	0.3787	0.7313	0.3794	-0.161
Mof_H 	H 	0.4147	0.785	0.3684	0.135
Mof_C 	C 	0.3435	0.7752	0.3082	0.287
Mof_H 	H 	0.362	0.843	0.27	0.162
Mof_H 	H 	0.3974	0.8037	0.327	-0.131
Mof_N 	N 	0.1786	0.1055	0.9315	-0.153
Mof_O 	O 	0.2031	0.0888	0.9268	-0.238
Mof_C 	C 	0.2313	0.1213	0.8794	-0.163
Mof_H 	H 	0.285	0.0853	0.8684	0.135
Mof_C 	C 	0.2752	0.1565	0.8082	0.278
Mof_H 	H 	0.343	0.138	0.77	0.155
Mof_H 	H 	0.3037	0.1026	0.827	-0.132
Mof_N 	N 	0.6786	0.6055	0.4315	-0.171
Mof_O 	O 	0.7031	0.5888	0.4268	-0.257
Mof_C 	C 	0.7313	0.6213	0.3794	-0.157
Mof_H 	H 	0.785	0.5853	0.3684	0.134
Mof_C 	C 	0.7752	0.6565	0.3082	0.287
Mof_H 	H 	0.843	0.638	0.27	0.163
Mof_H 	H 	0.8037	0.6026	0.327	-0.13
Mof_N 	N 	0.8214	0.8945	0.9315	-0.134
Mof_O 	O 	0.7969	0.9112	0.9268	-0.229
Mof_C 	C 	0.7687	0.8787	0.8794	-0.139
Mof_H 	H 	0.715	0.9147	0.8684	0.141
Mof_C 	C 	0.7248	0.8435	0.8082	0.274
Mof_H 	H 	0.657	0.862	0.77	0.167
Mof_H 	H 	0.6963	0.8974	0.827	-0.118
Mof_N 	N 	0.3214	0.3945	0.4315	-0.174
Mof_O 	O 	0.2969	0.4112	0.4268	-0.258
Mof_C 	C 	0.2687	0.3787	0.3794	-0.166
Mof_H 	H 	0.215	0.4147	0.3684	0.131
Mof_C 	C 	0.2248	0.3435	0.3082	0.285
Mof_H 	H 	0.157	0.362	0.27	0.154
Mof_H 	H 	0.1963	0.3974	0.327	-0.136
Mof_N 	N 	0.8945	0.8214	0.0685	-0.167
Mof_O 	O 	0.9112	0.7969	0.0732	-0.256
Mof_C 	C 	0.8787	0.7687	0.1206	-0.158
Mof_H 	H 	0.9147	0.715	0.1316	0.134
Mof_C 	C 	0.8435	0.7248	0.1918	0.292
Mof_H 	H 	0.862	0.657	0.23	0.161
Mof_H 	H 	0.8974	0.6963	0.173	-0.13
Mof_N 	N 	0.3945	0.3214	0.5685	-0.173
Mof_O 	O 	0.4112	0.2969	0.5732	-0.259
Mof_C 	C 	0.3787	0.2687	0.6206	-0.166
Mof_H 	H 	0.4147	0.215	0.6316	0.132
Mof_C 	C 	0.3435	0.2248	0.6918	0.29
Mof_H 	H 	0.362	0.157	0.73	0.151
Mof_H 	H 	0.3974	0.1963	0.673	-0.135
Mof_N 	N 	0.1055	0.1786	0.0685	-0.188
Mof_O 	O 	0.0888	0.2031	0.0732	-0.267
Mof_C 	C 	0.1213	0.2313	0.1206	-0.184
Mof_H 	H 	0.0853	0.285	0.1316	0.128
Mof_C 	C 	0.1565	0.2752	0.1918	0.298
Mof_H 	H 	0.138	0.343	0.23	0.149
Mof_H 	H 	0.1026	0.3037	0.173	-0.145
Mof_N 	N 	0.6055	0.6786	0.5685	-0.169
Mof_O 	O 	0.5888	0.7031	0.5732	-0.257
Mof_C 	C 	0.6213	0.7313	0.6206	-0.157
Mof_H 	H 	0.5853	0.785	0.6316	0.135
Mof_C 	C 	0.6565	0.7752	0.6918	0.291
Mof_H 	H 	0.638	0.843	0.73	0.16
Mof_H 	H 	0.6026	0.8037	0.673	-0.129
Mof_N 	N 	0.8214	0.1055	0.0685	-0.196
Mof_O 	O 	0.7969	0.0888	0.0732	-0.249
Mof_C 	C 	0.7687	0.1213	0.1206	-0.177
Mof_H 	H 	0.715	0.0853	0.1316	0.124
Mof_C 	C 	0.7248	0.1565	0.1918	0.295
Mof_H 	H 	0.657	0.138	0.23	0.15
Mof_H 	H 	0.6963	0.1026	0.173	-0.142
Mof_N 	N 	0.3214	0.6055	0.5685	-0.174
Mof_O 	O 	0.2969	0.5888	0.5732	-0.256
Mof_C 	C 	0.2687	0.6213	0.6206	-0.163
Mof_H 	H 	0.215	0.5853	0.6316	0.131
Mof_C 	C 	0.2248	0.6565	0.6918	0.289
Mof_H 	H 	0.157	0.638	0.73	0.152
Mof_H 	H 	0.1963	0.6026	0.673	-0.134
Mof_N 	N 	0.1786	0.8945	0.0685	-0.159
Mof_O 	O 	0.2031	0.9112	0.0732	-0.274
Mof_C 	C 	0.2313	0.8787	0.1206	-0.166
Mof_H 	H 	0.285	0.9147	0.1316	0.138
Mof_C 	C 	0.2752	0.8435	0.1918	0.295
Mof_H 	H 	0.343	0.862	0.23	0.159
Mof_H 	H 	0.3037	0.8974	0.173	-0.133
Mof_N 	N 	0.6786	0.3945	0.5685	-0.168
Mof_O 	O 	0.7031	0.4112	0.5732	-0.26
Mof_C 	C 	0.7313	0.3787	0.6206	-0.161
Mof_H 	H 	0.785	0.4147	0.6316	0.136
Mof_C 	C 	0.7752	0.3435	0.6918	0.291
Mof_H 	H 	0.843	0.362	0.73	0.159
Mof_H 	H 	0.8037	0.3974	0.673	-0.13
Mof_Cu	Cu	3.23111e-33	0.18409	-0	0.879
Mof_Cu	Cu	0.5	0.68409	0.5	0.936
Mof_Cu	Cu	1.29244e-32	0.81591	-0	0.883
Mof_Cu	Cu	0.5	0.31591	0.5	0.933
Mof_Cu	Cu	0.81591	0	-0	0.883
Mof_Cu	Cu	0.31591	0.5	0.5	0.933
Mof_Cu	Cu	0.18409	0	-0	0.879
Mof_Cu	Cu	0.68409	0.5	0.5	0.936
Mof_Cl	Cl	-0	0	-0	-0.787
Mof_Cl	Cl	0.5	0.5	0.5	-0.663
Mof_C 	C 	0.8402	0.1598	0.0967	0.732
Mof_C 	C 	0.8017	0.1983	0.1581	-0.409
Mof_C 	C 	0.7653	0.2347	0.2169	0.269
Mof_C 	C 	0.3402	0.6598	0.5967	0.722
Mof_C 	C 	0.3017	0.6983	0.6581	-0.4
Mof_C 	C 	0.2653	0.7347	0.7169	0.27
Mof_C 	C 	0.1598	0.8402	0.0967	0.732
Mof_C 	C 	0.1983	0.8017	0.1581	-0.409
Mof_C 	C 	0.2347	0.7653	0.2169	0.269
Mof_C 	C 	0.6598	0.3402	0.5967	0.722
Mof_C 	C 	0.6983	0.3017	0.6581	-0.4
Mof_C 	C 	0.7347	0.2653	0.7169	0.27
Mof_C 	C 	0.8402	0.8402	0.0967	0.715
Mof_C 	C 	0.8017	0.8017	0.1581	-0.404
Mof_C 	C 	0.7653	0.7653	0.2169	0.276
Mof_C 	C 	0.3402	0.3402	0.5967	0.725
Mof_C 	C 	0.3017	0.3017	0.6581	-0.401
Mof_C 	C 	0.2653	0.2653	0.7169	0.264
Mof_C 	C 	0.1598	0.1598	0.0967	0.747
Mof_C 	C 	0.1983	0.1983	0.1581	-0.413
Mof_C 	C 	0.2347	0.2347	0.2169	0.261
Mof_C 	C 	0.6598	0.6598	0.5967	0.719
Mof_C 	C 	0.6983	0.6983	0.6581	-0.399
Mof_C 	C 	0.7347	0.7347	0.7169	0.276
Mof_C 	C 	0.1598	0.1598	0.9033	0.705
Mof_C 	C 	0.1983	0.1983	0.8419	-0.385
Mof_C 	C 	0.2347	0.2347	0.7831	0.274
Mof_C 	C 	0.6598	0.6598	0.4033	0.72
Mof_C 	C 	0.6983	0.6983	0.3419	-0.404
Mof_C 	C 	0.7347	0.7347	0.2831	0.287
Mof_C 	C 	0.8402	0.8402	0.9033	0.676
Mof_C 	C 	0.8017	0.8017	0.8419	-0.378
Mof_C 	C 	0.7653	0.7653	0.7831	0.288
Mof_C 	C 	0.3402	0.3402	0.4033	0.726
Mof_C 	C 	0.3017	0.3017	0.3419	-0.406
Mof_C 	C 	0.2653	0.2653	0.2831	0.275
Mof_C 	C 	0.1598	0.8402	0.9033	0.691
Mof_C 	C 	0.1983	0.8017	0.8419	-0.382
Mof_C 	C 	0.2347	0.7653	0.7831	0.281
Mof_C 	C 	0.6598	0.3402	0.4033	0.723
Mof_C 	C 	0.6983	0.3017	0.3419	-0.405
Mof_C 	C 	0.7347	0.2653	0.2831	0.281
Mof_C 	C 	0.8402	0.1598	0.9033	0.691
Mof_C 	C 	0.8017	0.1983	0.8419	-0.382
Mof_C 	C 	0.7653	0.2347	0.7831	0.281
Mof_C 	C 	0.3402	0.6598	0.4033	0.723
Mof_C 	C 	0.3017	0.6983	0.3419	-0.405
Mof_C 	C 	0.2653	0.7347	0.2831	0.281
Mof_C 	C 	0.8105	0.3105	0.25	-0.696
Mof_C 	C 	0.1895	0.6895	0.25	-0.693
Mof_C 	C 	0.6895	0.8105	0.25	-0.697
Mof_C 	C 	0.3105	0.1895	0.25	-0.692
Mof_C 	C 	0.1895	0.3105	0.75	-0.679
Mof_C 	C 	0.8105	0.6895	0.75	-0.685
Mof_C 	C 	0.3105	0.8105	0.75	-0.684
Mof_C 	C 	0.6895	0.1895	0.75	-0.681
Mof_C 	C 	0.1895	0.6895	0.75	-0.681
Mof_C 	C 	0.8105	0.3105	0.75	-0.684
Mof_C 	C 	0.3105	0.1895	0.75	-0.679
Mof_C 	C 	0.6895	0.8105	0.75	-0.685
Mof_C 	C 	0.1895	0.3105	0.25	-0.692
Mof_C 	C 	0.8105	0.6895	0.25	-0.697
Mof_C 	C 	0.6895	0.1895	0.25	-0.693
Mof_C 	C 	0.3105	0.8105	0.25	-0.696
_end
