data_functionalizedCrystal
_audit_creation_method	'EQeq! by Chris Wilmer'
_symmetry_space_group_name_H-M	'P1'
_symmetry_Int_Tables_number	1
_symmetry_cell_setting	triclinic
loop_
_symmetry_equiv_pos_as_xyz
  x,y,z
_cell_length_a	12.051
_cell_length_b	18.59
_cell_length_c	19.726
_cell_angle_alpha	90
_cell_angle_beta	116.94
_cell_angle_gamma	90
loop_
_atom_site_label
_atom_site_type_symbol
_atom_site_fract_x
_atom_site_fract_y
_atom_site_fract_z
_atom_site_charge
Mof_Dy	Dy	0.17172	0.27473	0.21246	1.612
Mof_Dy	Dy	0.18254	0.70983	0.22729	1.462
Mof_K 	K 	0.18103	0.49215	0.21827	4.245
Mof_O 	O 	0.5287	0.6732	0.3368	-0.358
Mof_O 	O 	0.3425	0.6228	0.2706	-0.723
Mof_O 	O 	0.4413	0.4904	0.2979	-0.545
Mof_O 	O 	0.3359	0.3584	0.2629	-0.706
Mof_O 	O 	0.5206	0.3051	0.3234	-0.339
Mof_O 	O 	0.1611	0.6825	0.0296	-0.342
Mof_O 	O 	0.1535	0.6265	0.1277	-0.695
Mof_O 	O 	0.156	0.4968	0.0691	-0.566
Mof_O 	O 	0.15	0.364	0.1189	-0.708
Mof_O 	O 	0.1604	0.3134	0.0188	-0.374
Mof_O 	O 	0.9126	0.6759	0.2598	-0.58
Mof_O 	O 	0.0481	0.621	0.2304	-0.788
Mof_O 	O 	0.8966	0.3078	0.2404	-0.584
Mof_O 	O 	0.0395	0.3646	0.2178	-0.784
Mof_O 	O 	0.962	0.4927	0.2363	-0.515
Mof_C 	C 	0.4598	0.6209	0.3104	0.365
Mof_C 	C 	0.516	0.5484	0.3272	0.028
Mof_C 	C 	0.6341	0.5261	0.3729	-0.051
Mof_H 	H 	0.7024	0.5554	0.4006	0.028
Mof_C 	C 	0.634	0.4501	0.3705	-0.043
Mof_H 	H 	0.7019	0.4198	0.3959	0.021
Mof_C 	C 	0.5146	0.4299	0.3236	0.016
Mof_C 	C 	0.4537	0.3596	0.3022	0.361
Mof_C 	C 	0.1532	0.6277	0.0642	0.35
Mof_C 	C 	0.1517	0.5568	0.028	0.035
Mof_C 	C 	0.1491	0.5379	0.9628	-0.105
Mof_H 	H 	0.1493	0.5692	0.926	-0.008
Mof_C 	C 	0.1459	0.4621	0.9583	-0.099
Mof_H 	H 	0.1392	0.434	0.9176	-0.029
Mof_C 	C 	0.1545	0.4389	0.0255	0.012
Mof_C 	C 	0.1557	0.3659	0.0568	0.351
Mof_C 	C 	0.9602	0.621	0.2465	0.484
Mof_C 	C 	0.9073	0.5505	0.2521	-0.036
Mof_C 	C 	0.8175	0.5298	0.2684	-0.042
Mof_H 	H 	0.7658	0.5593	0.2797	0.001
Mof_C 	C 	0.8155	0.4526	0.2652	-0.027
Mof_H 	H 	0.7629	0.4223	0.275	-0.006
Mof_C 	C 	0.9034	0.4326	0.2458	-0.046
Mof_C 	C 	0.9503	0.3625	0.2337	0.505
Mof_O 	O 	0.2742	0.4408	0.3761	-0.318
Mof_O 	O 	0.214	0.293	0.344	-0.267
Mof_O 	O 	0.352	0.19	0.462	1.575
Mof_O 	O 	0.356	0.216	0.445	-2.053
Mof_O 	O 	0.315	0.415	0.415	-0.003
Mof_O 	O 	0.287	0.51	0.3855	-0.5
Mof_O 	O 	0.47	0.553	0.487	-0.524
Mof_C 	C 	0.3	0.271	0.405	0.971
Mof_C 	C 	0.344	0.348	0.438	-0.167
Mof_C 	C 	0.461	0.327	0.493	-0.12
Mof_H 	H 	0.5147	0.2892	0.523	0.064
Mof_C 	C 	0.531	0.389	0.514	0.244
Mof_H 	H 	0.6028	0.4129	0.5515	0.016
Mof_C 	C 	0.43	0.43	0.463	0.15
Mof_C 	C 	0.391	0.509	0.4431	0.441
Mof_O 	O 	0.2122	0.2936	0.3451	-0.285
Mof_Dy	Dy	0.82828	0.77473	0.28754	1.612
Mof_Dy	Dy	0.81746	0.20983	0.27271	1.463
Mof_K 	K 	0.81897	0.99215	0.28173	4.212
Mof_O 	O 	0.4713	0.1732	0.1632	-0.357
Mof_O 	O 	0.6575	0.1228	0.2294	-0.719
Mof_O 	O 	0.5587	0.9904	0.2021	-0.545
Mof_O 	O 	0.6641	0.8584	0.2371	-0.704
Mof_O 	O 	0.4794	0.8051	0.1766	-0.339
Mof_O 	O 	0.8389	0.1825	0.4704	-0.34
Mof_O 	O 	0.8465	0.1265	0.3723	-0.69
Mof_O 	O 	0.844	0.9968	0.4309	-0.568
Mof_O 	O 	0.85	0.864	0.3811	-0.707
Mof_O 	O 	0.8396	0.8134	0.4812	-0.375
Mof_O 	O 	0.0874	0.1759	0.2402	-0.579
Mof_O 	O 	0.9519	0.121	0.2696	-0.781
Mof_O 	O 	0.1034	0.8078	0.2596	-0.586
Mof_O 	O 	0.9605	0.8646	0.2822	-0.788
Mof_O 	O 	0.038	0.9927	0.2637	-0.505
Mof_C 	C 	0.5402	0.1209	0.1896	0.364
Mof_C 	C 	0.484	0.0484	0.1728	0.031
Mof_C 	C 	0.3659	0.0261	0.1271	-0.048
Mof_H 	H 	0.2976	0.0554	0.0994	0.027
Mof_C 	C 	0.366	0.9501	0.1295	-0.046
Mof_H 	H 	0.2981	0.9198	0.1041	0.022
Mof_C 	C 	0.4854	0.9299	0.1764	0.017
Mof_C 	C 	0.5463	0.8596	0.1978	0.36
Mof_C 	C 	0.8468	0.1277	0.4358	0.35
Mof_C 	C 	0.8483	0.0568	0.472	0.04
Mof_C 	C 	0.8509	0.0379	0.5372	-0.095
Mof_H 	H 	0.8507	0.0692	0.574	-0.009
Mof_C 	C 	0.8541	0.9621	0.5417	-0.106
Mof_H 	H 	0.8608	0.934	0.5824	-0.027
Mof_C 	C 	0.8455	0.9389	0.4745	0.013
Mof_C 	C 	0.8443	0.8659	0.4432	0.349
Mof_C 	C 	0.0398	0.121	0.2535	0.48
Mof_C 	C 	0.0927	0.0505	0.2479	-0.039
Mof_C 	C 	0.1825	0.0298	0.2316	-0.045
Mof_H 	H 	0.2342	0.0593	0.2203	0.002
Mof_C 	C 	0.1845	0.9526	0.2348	-0.02
Mof_H 	H 	0.2371	0.9223	0.225	-0.008
Mof_C 	C 	0.0966	0.9326	0.2542	-0.05
Mof_C 	C 	0.0497	0.8625	0.2663	0.513
Mof_O 	O 	0.7258	0.9408	0.1239	-0.323
Mof_O 	O 	0.786	0.793	0.156	-0.265
Mof_O 	O 	0.648	0.69	0.038	1.54
Mof_O 	O 	0.644	0.716	0.055	-2.014
Mof_O 	O 	0.685	0.915	0.085	-0.002
Mof_O 	O 	0.713	0.01	0.1145	-0.493
Mof_O 	O 	0.53	0.053	0.013	-0.525
Mof_C 	C 	0.7	0.771	0.095	0.954
Mof_C 	C 	0.656	0.848	0.062	-0.157
Mof_C 	C 	0.539	0.827	0.007	-0.144
Mof_H 	H 	0.4853	0.7892	0.977	0.073
Mof_C 	C 	0.469	0.889	0.986	0.268
Mof_H 	H 	0.3972	0.9129	0.9485	0.007
Mof_C 	C 	0.57	0.93	0.037	0.133
Mof_C 	C 	0.609	0.009	0.0569	0.452
Mof_O 	O 	0.7878	0.7936	0.1549	-0.283
Mof_Dy	Dy	0.82828	0.72528	0.78754	1.612
Mof_Dy	Dy	0.81746	0.29017	0.77271	1.462
Mof_K 	K 	0.81897	0.50785	0.78173	4.245
Mof_O 	O 	0.4713	0.3268	0.6632	-0.358
Mof_O 	O 	0.6575	0.3772	0.7294	-0.723
Mof_O 	O 	0.5587	0.5096	0.7021	-0.545
Mof_O 	O 	0.6641	0.6416	0.7371	-0.706
Mof_O 	O 	0.4794	0.6949	0.6766	-0.339
Mof_O 	O 	0.8389	0.3175	0.9704	-0.342
Mof_O 	O 	0.8465	0.3735	0.8723	-0.695
Mof_O 	O 	0.844	0.5032	0.9309	-0.566
Mof_O 	O 	0.85	0.636	0.8811	-0.708
Mof_O 	O 	0.8396	0.6866	0.9812	-0.374
Mof_O 	O 	0.0874	0.3241	0.7402	-0.581
Mof_O 	O 	0.9519	0.379	0.7696	-0.788
Mof_O 	O 	0.1034	0.6922	0.7596	-0.584
Mof_O 	O 	0.9605	0.6354	0.7822	-0.784
Mof_O 	O 	0.038	0.5073	0.7637	-0.515
Mof_C 	C 	0.5402	0.3791	0.6896	0.365
Mof_C 	C 	0.484	0.4516	0.6728	0.028
Mof_C 	C 	0.3659	0.4739	0.6271	-0.051
Mof_H 	H 	0.2976	0.4446	0.5994	0.028
Mof_C 	C 	0.366	0.5499	0.6295	-0.043
Mof_H 	H 	0.2981	0.5802	0.6041	0.021
Mof_C 	C 	0.4854	0.5701	0.6764	0.016
Mof_C 	C 	0.5463	0.6404	0.6978	0.361
Mof_C 	C 	0.8468	0.3723	0.9358	0.35
Mof_C 	C 	0.8483	0.4432	0.972	0.035
Mof_C 	C 	0.8509	0.4621	0.0372	-0.105
Mof_H 	H 	0.8507	0.4308	0.074	-0.008
Mof_C 	C 	0.8541	0.5379	0.0417	-0.099
Mof_H 	H 	0.8608	0.566	0.0824	-0.029
Mof_C 	C 	0.8455	0.5611	0.9745	0.012
Mof_C 	C 	0.8443	0.6341	0.9432	0.351
Mof_C 	C 	0.0398	0.379	0.7535	0.484
Mof_C 	C 	0.0927	0.4495	0.7479	-0.036
Mof_C 	C 	0.1825	0.4702	0.7316	-0.042
Mof_H 	H 	0.2342	0.4407	0.7203	0.001
Mof_C 	C 	0.1845	0.5474	0.7348	-0.027
Mof_H 	H 	0.2371	0.5777	0.725	-0.006
Mof_C 	C 	0.0966	0.5674	0.7542	-0.046
Mof_C 	C 	0.0497	0.6375	0.7663	0.505
Mof_O 	O 	0.7258	0.5592	0.6239	-0.318
Mof_O 	O 	0.786	0.707	0.656	-0.267
Mof_O 	O 	0.648	0.81	0.538	1.575
Mof_O 	O 	0.644	0.784	0.555	-2.053
Mof_O 	O 	0.685	0.585	0.585	-0.003
Mof_O 	O 	0.713	0.49	0.6145	-0.5
Mof_O 	O 	0.53	0.447	0.513	-0.524
Mof_C 	C 	0.7	0.729	0.595	0.971
Mof_C 	C 	0.656	0.652	0.562	-0.167
Mof_C 	C 	0.539	0.673	0.507	-0.12
Mof_H 	H 	0.4853	0.7108	0.477	0.064
Mof_C 	C 	0.469	0.611	0.486	0.244
Mof_H 	H 	0.3972	0.5871	0.4485	0.016
Mof_C 	C 	0.57	0.57	0.537	0.15
Mof_C 	C 	0.609	0.491	0.5569	0.441
Mof_O 	O 	0.7878	0.7064	0.6549	-0.285
Mof_Dy	Dy	0.17172	0.22528	0.71246	1.612
Mof_Dy	Dy	0.18254	0.79017	0.72729	1.463
Mof_K 	K 	0.18103	0.00785	0.71827	4.212
Mof_O 	O 	0.5287	0.8268	0.8368	-0.358
Mof_O 	O 	0.3425	0.8772	0.7706	-0.719
Mof_O 	O 	0.4413	0.0096	0.7979	-0.545
Mof_O 	O 	0.3359	0.1416	0.7629	-0.704
Mof_O 	O 	0.5206	0.1949	0.8234	-0.339
Mof_O 	O 	0.1611	0.8175	0.5296	-0.34
Mof_O 	O 	0.1535	0.8735	0.6277	-0.69
Mof_O 	O 	0.156	0.0032	0.5691	-0.568
Mof_O 	O 	0.15	0.136	0.6189	-0.707
Mof_O 	O 	0.1604	0.1866	0.5188	-0.375
Mof_O 	O 	0.9126	0.8241	0.7598	-0.579
Mof_O 	O 	0.0481	0.879	0.7304	-0.781
Mof_O 	O 	0.8966	0.1922	0.7404	-0.586
Mof_O 	O 	0.0395	0.1354	0.7178	-0.788
Mof_O 	O 	0.962	0.0073	0.7363	-0.505
Mof_C 	C 	0.4598	0.8791	0.8104	0.364
Mof_C 	C 	0.516	0.9516	0.8272	0.031
Mof_C 	C 	0.6341	0.9739	0.8729	-0.048
Mof_H 	H 	0.7024	0.9446	0.9006	0.027
Mof_C 	C 	0.634	0.0499	0.8705	-0.046
Mof_H 	H 	0.7019	0.0802	0.8959	0.022
Mof_C 	C 	0.5146	0.0701	0.8236	0.017
Mof_C 	C 	0.4537	0.1404	0.8022	0.36
Mof_C 	C 	0.1532	0.8723	0.5642	0.35
Mof_C 	C 	0.1517	0.9432	0.528	0.04
Mof_C 	C 	0.1491	0.9621	0.4628	-0.095
Mof_H 	H 	0.1493	0.9308	0.426	-0.009
Mof_C 	C 	0.1459	0.0379	0.4583	-0.106
Mof_H 	H 	0.1392	0.066	0.4176	-0.027
Mof_C 	C 	0.1545	0.0611	0.5255	0.013
Mof_C 	C 	0.1557	0.1341	0.5568	0.349
Mof_C 	C 	0.9602	0.879	0.7465	0.48
Mof_C 	C 	0.9073	0.9495	0.7521	-0.039
Mof_C 	C 	0.8175	0.9702	0.7684	-0.045
Mof_H 	H 	0.7658	0.9407	0.7797	0.002
Mof_C 	C 	0.8155	0.0474	0.7652	-0.02
Mof_H 	H 	0.7629	0.0777	0.775	-0.008
Mof_C 	C 	0.9034	0.0674	0.7458	-0.05
Mof_C 	C 	0.9503	0.1375	0.7337	0.513
Mof_O 	O 	0.2742	0.0592	0.8761	-0.323
Mof_O 	O 	0.214	0.207	0.844	-0.265
Mof_O 	O 	0.352	0.31	0.962	1.54
Mof_O 	O 	0.356	0.284	0.945	-2.014
Mof_O 	O 	0.315	0.085	0.915	-0.002
Mof_O 	O 	0.287	0.99	0.8855	-0.493
Mof_O 	O 	0.47	0.947	0.987	-0.525
Mof_C 	C 	0.3	0.229	0.905	0.954
Mof_C 	C 	0.344	0.152	0.938	-0.157
Mof_C 	C 	0.461	0.173	0.993	-0.144
Mof_H 	H 	0.5147	0.2108	0.023	0.073
Mof_C 	C 	0.531	0.111	0.014	0.268
Mof_H 	H 	0.6028	0.0871	0.0515	0.007
Mof_C 	C 	0.43	0.07	0.963	0.133
Mof_C 	C 	0.391	0.991	0.9431	0.452
Mof_O 	O 	0.2122	0.2064	0.8451	-0.283
_end
