data_functionalizedCrystal
_audit_creation_method	'EQeq! by Chris Wilmer'
_symmetry_space_group_name_H-M	'P1'
_symmetry_Int_Tables_number	1
_symmetry_cell_setting	triclinic
loop_
_symmetry_equiv_pos_as_xyz
  x,y,z
_cell_length_a	28.973
_cell_length_b	28.973
_cell_length_c	28.973
_cell_angle_alpha	90
_cell_angle_beta	90
_cell_angle_gamma	90
loop_
_atom_site_label
_atom_site_type_symbol
_atom_site_fract_x
_atom_site_fract_y
_atom_site_fract_z
_atom_site_charge
Mof_O 	O 	0.5479	0.7128	0.04719	-0.524
Mof_B 	B 	0.6274	0.7583	0.1866	0.496
Mof_H 	H 	0.6136	0.7645	0.2218	-0.204
Mof_B 	B 	0.646	0.7665	0.0928	0.029
Mof_H 	H 	0.6583	0.7787	0.0587	-0.066
Mof_B 	B 	0.6085	0.7893	0.1294	0.568
Mof_H 	H 	0.5899	0.8227	0.1274	-0.211
Mof_B 	B 	0.6653	0.7911	0.1475	0.05
Mof_H 	H 	0.6818	0.8254	0.1519	-0.072
Mof_O 	O 	0.4521	0.2872	0.04719	-0.523
Mof_B 	B 	0.3726	0.2417	0.1866	0.496
Mof_H 	H 	0.3864	0.2355	0.2218	-0.204
Mof_B 	B 	0.354	0.2335	0.0928	0.03
Mof_H 	H 	0.3417	0.2213	0.0587	-0.069
Mof_B 	B 	0.3915	0.2107	0.1294	0.568
Mof_H 	H 	0.4101	0.1773	0.1274	-0.215
Mof_B 	B 	0.3347	0.2089	0.1475	0.048
Mof_H 	H 	0.3182	0.1746	0.1519	-0.077
Mof_O 	O 	0.4521	0.7128	0.95281	-0.505
Mof_B 	B 	0.3726	0.7583	0.8134	0.503
Mof_H 	H 	0.3864	0.7645	0.7782	-0.204
Mof_B 	B 	0.354	0.7665	0.9072	0.026
Mof_H 	H 	0.3417	0.7787	0.9413	-0.054
Mof_B 	B 	0.3915	0.7893	0.8706	0.571
Mof_H 	H 	0.4101	0.8227	0.8726	-0.208
Mof_B 	B 	0.3347	0.7911	0.8525	0.051
Mof_H 	H 	0.3182	0.8254	0.8481	-0.069
Mof_O 	O 	0.5479	0.2872	0.95281	-0.505
Mof_B 	B 	0.6274	0.2417	0.8134	0.501
Mof_H 	H 	0.6136	0.2355	0.7782	-0.205
Mof_B 	B 	0.646	0.2335	0.9072	0.026
Mof_H 	H 	0.6583	0.2213	0.9413	-0.056
Mof_B 	B 	0.6085	0.2107	0.8706	0.57
Mof_H 	H 	0.5899	0.1773	0.8726	-0.212
Mof_B 	B 	0.6653	0.2089	0.8525	0.05
Mof_H 	H 	0.6818	0.1746	0.8481	-0.072
Mof_O 	O 	0.04719	0.5479	0.7128	-0.523
Mof_B 	B 	0.1866	0.6274	0.7583	0.497
Mof_H 	H 	0.2218	0.6136	0.7645	-0.203
Mof_B 	B 	0.0928	0.646	0.7665	0.03
Mof_H 	H 	0.0587	0.6583	0.7787	-0.065
Mof_B 	B 	0.1294	0.6085	0.7893	0.569
Mof_H 	H 	0.1274	0.5899	0.8227	-0.211
Mof_B 	B 	0.1475	0.6653	0.7911	0.05
Mof_H 	H 	0.1519	0.6818	0.8254	-0.072
Mof_O 	O 	0.04719	0.4521	0.2872	-0.523
Mof_B 	B 	0.1866	0.3726	0.2417	0.496
Mof_H 	H 	0.2218	0.3864	0.2355	-0.204
Mof_B 	B 	0.0928	0.354	0.2335	0.03
Mof_H 	H 	0.0587	0.3417	0.2213	-0.069
Mof_B 	B 	0.1294	0.3915	0.2107	0.568
Mof_H 	H 	0.1274	0.4101	0.1773	-0.215
Mof_B 	B 	0.1475	0.3347	0.2089	0.048
Mof_H 	H 	0.1519	0.3182	0.1746	-0.077
Mof_O 	O 	0.95281	0.4521	0.7128	-0.505
Mof_B 	B 	0.8134	0.3726	0.7583	0.503
Mof_H 	H 	0.7782	0.3864	0.7645	-0.204
Mof_B 	B 	0.9072	0.354	0.7665	0.026
Mof_H 	H 	0.9413	0.3417	0.7787	-0.054
Mof_B 	B 	0.8706	0.3915	0.7893	0.571
Mof_H 	H 	0.8726	0.4101	0.8227	-0.208
Mof_B 	B 	0.8525	0.3347	0.7911	0.051
Mof_H 	H 	0.8481	0.3182	0.8254	-0.069
Mof_O 	O 	0.95281	0.5479	0.2872	-0.505
Mof_B 	B 	0.8134	0.6274	0.2417	0.501
Mof_H 	H 	0.7782	0.6136	0.2355	-0.205
Mof_B 	B 	0.9072	0.646	0.2335	0.026
Mof_H 	H 	0.9413	0.6583	0.2213	-0.056
Mof_B 	B 	0.8706	0.6085	0.2107	0.57
Mof_H 	H 	0.8726	0.5899	0.1773	-0.212
Mof_B 	B 	0.8525	0.6653	0.2089	0.05
Mof_H 	H 	0.8481	0.6818	0.1746	-0.072
Mof_O 	O 	0.7128	0.04719	0.5479	-0.523
Mof_B 	B 	0.7583	0.1866	0.6274	0.497
Mof_H 	H 	0.7645	0.2218	0.6136	-0.203
Mof_B 	B 	0.7665	0.0928	0.646	0.03
Mof_H 	H 	0.7787	0.0587	0.6583	-0.065
Mof_B 	B 	0.7893	0.1294	0.6085	0.569
Mof_H 	H 	0.8227	0.1274	0.5899	-0.211
Mof_B 	B 	0.7911	0.1475	0.6653	0.05
Mof_H 	H 	0.8254	0.1519	0.6818	-0.072
Mof_O 	O 	0.2872	0.04719	0.4521	-0.523
Mof_B 	B 	0.2417	0.1866	0.3726	0.496
Mof_H 	H 	0.2355	0.2218	0.3864	-0.204
Mof_B 	B 	0.2335	0.0928	0.354	0.03
Mof_H 	H 	0.2213	0.0587	0.3417	-0.069
Mof_B 	B 	0.2107	0.1294	0.3915	0.568
Mof_H 	H 	0.1773	0.1274	0.4101	-0.215
Mof_B 	B 	0.2089	0.1475	0.3347	0.048
Mof_H 	H 	0.1746	0.1519	0.3182	-0.077
Mof_O 	O 	0.7128	0.95281	0.4521	-0.505
Mof_B 	B 	0.7583	0.8134	0.3726	0.503
Mof_H 	H 	0.7645	0.7782	0.3864	-0.204
Mof_B 	B 	0.7665	0.9072	0.354	0.026
Mof_H 	H 	0.7787	0.9413	0.3417	-0.054
Mof_B 	B 	0.7893	0.8706	0.3915	0.571
Mof_H 	H 	0.8227	0.8726	0.4101	-0.208
Mof_B 	B 	0.7911	0.8525	0.3347	0.051
Mof_H 	H 	0.8254	0.8481	0.3182	-0.069
Mof_O 	O 	0.2872	0.95281	0.5479	-0.505
Mof_B 	B 	0.2417	0.8134	0.6274	0.501
Mof_H 	H 	0.2355	0.7782	0.6136	-0.205
Mof_B 	B 	0.2335	0.9072	0.646	0.026
Mof_H 	H 	0.2213	0.9413	0.6583	-0.056
Mof_B 	B 	0.2107	0.8706	0.6085	0.57
Mof_H 	H 	0.1773	0.8726	0.5899	-0.212
Mof_B 	B 	0.2089	0.8525	0.6653	0.05
Mof_H 	H 	0.1746	0.8481	0.6818	-0.072
Mof_O 	O 	0.2128	0.0479	0.45281	-0.524
Mof_B 	B 	0.2583	0.1274	0.3134	0.495
Mof_H 	H 	0.2645	0.1136	0.2782	-0.208
Mof_B 	B 	0.2665	0.146	0.4072	0.032
Mof_H 	H 	0.2787	0.1583	0.4413	-0.063
Mof_B 	B 	0.2893	0.1085	0.3706	0.567
Mof_H 	H 	0.3227	0.0899	0.3726	-0.215
Mof_B 	B 	0.2911	0.1653	0.3525	0.049
Mof_H 	H 	0.3254	0.1818	0.3481	-0.074
Mof_O 	O 	0.7872	0.9521	0.45281	-0.504
Mof_B 	B 	0.7417	0.8726	0.3134	0.503
Mof_H 	H 	0.7355	0.8864	0.2782	-0.203
Mof_B 	B 	0.7335	0.854	0.4072	0.023
Mof_H 	H 	0.7213	0.8417	0.4413	-0.059
Mof_B 	B 	0.7107	0.8915	0.3706	0.572
Mof_H 	H 	0.6773	0.9101	0.3726	-0.209
Mof_B 	B 	0.7089	0.8347	0.3525	0.049
Mof_H 	H 	0.6746	0.8182	0.3481	-0.072
Mof_O 	O 	0.2128	0.9521	0.54719	-0.507
Mof_B 	B 	0.2583	0.8726	0.6866	0.503
Mof_H 	H 	0.2645	0.8864	0.7218	-0.202
Mof_B 	B 	0.2665	0.854	0.5928	0.024
Mof_H 	H 	0.2787	0.8417	0.5587	-0.06
Mof_B 	B 	0.2893	0.8915	0.6294	0.572
Mof_H 	H 	0.3227	0.9101	0.6274	-0.209
Mof_B 	B 	0.2911	0.8347	0.6475	0.05
Mof_H 	H 	0.3254	0.8182	0.6519	-0.072
Mof_O 	O 	0.7872	0.0479	0.54719	-0.521
Mof_B 	B 	0.7417	0.1274	0.6866	0.497
Mof_H 	H 	0.7355	0.1136	0.7218	-0.205
Mof_B 	B 	0.7335	0.146	0.5928	0.031
Mof_H 	H 	0.7213	0.1583	0.5587	-0.062
Mof_B 	B 	0.7107	0.1085	0.6294	0.567
Mof_H 	H 	0.6773	0.0899	0.6274	-0.214
Mof_B 	B 	0.7089	0.1653	0.6475	0.05
Mof_H 	H 	0.6746	0.1818	0.6519	-0.074
Mof_O 	O 	0.0479	0.54719	0.7872	-0.521
Mof_B 	B 	0.1274	0.6866	0.7417	0.497
Mof_H 	H 	0.1136	0.7218	0.7355	-0.205
Mof_B 	B 	0.146	0.5928	0.7335	0.031
Mof_H 	H 	0.1583	0.5587	0.7213	-0.062
Mof_B 	B 	0.1085	0.6294	0.7107	0.567
Mof_H 	H 	0.0899	0.6274	0.6773	-0.214
Mof_B 	B 	0.1653	0.6475	0.7089	0.05
Mof_H 	H 	0.1818	0.6519	0.6746	-0.074
Mof_O 	O 	0.9521	0.54719	0.2128	-0.507
Mof_B 	B 	0.8726	0.6866	0.2583	0.503
Mof_H 	H 	0.8864	0.7218	0.2645	-0.202
Mof_B 	B 	0.854	0.5928	0.2665	0.024
Mof_H 	H 	0.8417	0.5587	0.2787	-0.06
Mof_B 	B 	0.8915	0.6294	0.2893	0.572
Mof_H 	H 	0.9101	0.6274	0.3227	-0.209
Mof_B 	B 	0.8347	0.6475	0.2911	0.05
Mof_H 	H 	0.8182	0.6519	0.3254	-0.072
Mof_O 	O 	0.9521	0.45281	0.7872	-0.504
Mof_B 	B 	0.8726	0.3134	0.7417	0.503
Mof_H 	H 	0.8864	0.2782	0.7355	-0.203
Mof_B 	B 	0.854	0.4072	0.7335	0.023
Mof_H 	H 	0.8417	0.4413	0.7213	-0.059
Mof_B 	B 	0.8915	0.3706	0.7107	0.572
Mof_H 	H 	0.9101	0.3726	0.6773	-0.209
Mof_B 	B 	0.8347	0.3525	0.7089	0.049
Mof_H 	H 	0.8182	0.3481	0.6746	-0.072
Mof_O 	O 	0.0479	0.45281	0.2128	-0.524
Mof_B 	B 	0.1274	0.3134	0.2583	0.495
Mof_H 	H 	0.1136	0.2782	0.2645	-0.208
Mof_B 	B 	0.146	0.4072	0.2665	0.032
Mof_H 	H 	0.1583	0.4413	0.2787	-0.063
Mof_B 	B 	0.1085	0.3706	0.2893	0.567
Mof_H 	H 	0.0899	0.3726	0.3227	-0.215
Mof_B 	B 	0.1653	0.3525	0.2911	0.049
Mof_H 	H 	0.1818	0.3481	0.3254	-0.074
Mof_O 	O 	0.54719	0.2128	0.9521	-0.507
Mof_B 	B 	0.6866	0.2583	0.8726	0.503
Mof_H 	H 	0.7218	0.2645	0.8864	-0.202
Mof_B 	B 	0.5928	0.2665	0.854	0.024
Mof_H 	H 	0.5587	0.2787	0.8417	-0.06
Mof_B 	B 	0.6294	0.2893	0.8915	0.572
Mof_H 	H 	0.6274	0.3227	0.9101	-0.209
Mof_B 	B 	0.6475	0.2911	0.8347	0.05
Mof_H 	H 	0.6519	0.3254	0.8182	-0.072
Mof_O 	O 	0.54719	0.7872	0.0479	-0.521
Mof_B 	B 	0.6866	0.7417	0.1274	0.497
Mof_H 	H 	0.7218	0.7355	0.1136	-0.205
Mof_B 	B 	0.5928	0.7335	0.146	0.031
Mof_H 	H 	0.5587	0.7213	0.1583	-0.062
Mof_B 	B 	0.6294	0.7107	0.1085	0.567
Mof_H 	H 	0.6274	0.6773	0.0899	-0.214
Mof_B 	B 	0.6475	0.7089	0.1653	0.05
Mof_H 	H 	0.6519	0.6746	0.1818	-0.074
Mof_O 	O 	0.45281	0.2128	0.0479	-0.524
Mof_B 	B 	0.3134	0.2583	0.1274	0.495
Mof_H 	H 	0.2782	0.2645	0.1136	-0.208
Mof_B 	B 	0.4072	0.2665	0.146	0.032
Mof_H 	H 	0.4413	0.2787	0.1583	-0.063
Mof_B 	B 	0.3706	0.2893	0.1085	0.567
Mof_H 	H 	0.3726	0.3227	0.0899	-0.215
Mof_B 	B 	0.3525	0.2911	0.1653	0.049
Mof_H 	H 	0.3481	0.3254	0.1818	-0.074
Mof_O 	O 	0.45281	0.7872	0.9521	-0.504
Mof_B 	B 	0.3134	0.7417	0.8726	0.503
Mof_H 	H 	0.2782	0.7355	0.8864	-0.203
Mof_B 	B 	0.4072	0.7335	0.854	0.023
Mof_H 	H 	0.4413	0.7213	0.8417	-0.059
Mof_B 	B 	0.3706	0.7107	0.8915	0.572
Mof_H 	H 	0.3726	0.6773	0.9101	-0.209
Mof_B 	B 	0.3525	0.7089	0.8347	0.049
Mof_H 	H 	0.3481	0.6746	0.8182	-0.072
Mof_O 	O 	0.4521	0.2872	0.95281	-0.505
Mof_B 	B 	0.3726	0.2417	0.8134	0.501
Mof_H 	H 	0.3864	0.2355	0.7782	-0.205
Mof_B 	B 	0.354	0.2335	0.9072	0.026
Mof_H 	H 	0.3417	0.2213	0.9413	-0.057
Mof_B 	B 	0.3915	0.2107	0.8706	0.57
Mof_H 	H 	0.4101	0.1773	0.8726	-0.212
Mof_B 	B 	0.3347	0.2089	0.8525	0.049
Mof_H 	H 	0.3182	0.1746	0.8481	-0.073
Mof_O 	O 	0.5479	0.7128	0.95281	-0.505
Mof_B 	B 	0.6274	0.7583	0.8134	0.503
Mof_H 	H 	0.6136	0.7645	0.7782	-0.204
Mof_B 	B 	0.646	0.7665	0.9072	0.026
Mof_H 	H 	0.6583	0.7787	0.9413	-0.053
Mof_B 	B 	0.6085	0.7893	0.8706	0.571
Mof_H 	H 	0.5899	0.8227	0.8726	-0.208
Mof_B 	B 	0.6653	0.7911	0.8525	0.052
Mof_H 	H 	0.6818	0.8254	0.8481	-0.068
Mof_O 	O 	0.5479	0.2872	0.04719	-0.523
Mof_B 	B 	0.6274	0.2417	0.1866	0.496
Mof_H 	H 	0.6136	0.2355	0.2218	-0.204
Mof_B 	B 	0.646	0.2335	0.0928	0.03
Mof_H 	H 	0.6583	0.2213	0.0587	-0.068
Mof_B 	B 	0.6085	0.2107	0.1294	0.568
Mof_H 	H 	0.5899	0.1773	0.1274	-0.215
Mof_B 	B 	0.6653	0.2089	0.1475	0.048
Mof_H 	H 	0.6818	0.1746	0.1519	-0.076
Mof_O 	O 	0.4521	0.7128	0.04719	-0.523
Mof_B 	B 	0.3726	0.7583	0.1866	0.497
Mof_H 	H 	0.3864	0.7645	0.2218	-0.203
Mof_B 	B 	0.354	0.7665	0.0928	0.03
Mof_H 	H 	0.3417	0.7787	0.0587	-0.066
Mof_B 	B 	0.3915	0.7893	0.1294	0.569
Mof_H 	H 	0.4101	0.8227	0.1274	-0.211
Mof_B 	B 	0.3347	0.7911	0.1475	0.049
Mof_H 	H 	0.3182	0.8254	0.1519	-0.073
Mof_O 	O 	0.95281	0.4521	0.2872	-0.505
Mof_B 	B 	0.8134	0.3726	0.2417	0.501
Mof_H 	H 	0.7782	0.3864	0.2355	-0.205
Mof_B 	B 	0.9072	0.354	0.2335	0.026
Mof_H 	H 	0.9413	0.3417	0.2213	-0.057
Mof_B 	B 	0.8706	0.3915	0.2107	0.57
Mof_H 	H 	0.8726	0.4101	0.1773	-0.212
Mof_B 	B 	0.8525	0.3347	0.2089	0.049
Mof_H 	H 	0.8481	0.3182	0.1746	-0.073
Mof_O 	O 	0.95281	0.5479	0.7128	-0.505
Mof_B 	B 	0.8134	0.6274	0.7583	0.503
Mof_H 	H 	0.7782	0.6136	0.7645	-0.204
Mof_B 	B 	0.9072	0.646	0.7665	0.026
Mof_H 	H 	0.9413	0.6583	0.7787	-0.053
Mof_B 	B 	0.8706	0.6085	0.7893	0.571
Mof_H 	H 	0.8726	0.5899	0.8227	-0.208
Mof_B 	B 	0.8525	0.6653	0.7911	0.052
Mof_H 	H 	0.8481	0.6818	0.8254	-0.068
Mof_O 	O 	0.04719	0.5479	0.2872	-0.523
Mof_B 	B 	0.1866	0.6274	0.2417	0.496
Mof_H 	H 	0.2218	0.6136	0.2355	-0.204
Mof_B 	B 	0.0928	0.646	0.2335	0.03
Mof_H 	H 	0.0587	0.6583	0.2213	-0.068
Mof_B 	B 	0.1294	0.6085	0.2107	0.568
Mof_H 	H 	0.1274	0.5899	0.1773	-0.215
Mof_B 	B 	0.1475	0.6653	0.2089	0.048
Mof_H 	H 	0.1519	0.6818	0.1746	-0.076
Mof_O 	O 	0.04719	0.4521	0.7128	-0.523
Mof_B 	B 	0.1866	0.3726	0.7583	0.497
Mof_H 	H 	0.2218	0.3864	0.7645	-0.203
Mof_B 	B 	0.0928	0.354	0.7665	0.03
Mof_H 	H 	0.0587	0.3417	0.7787	-0.066
Mof_B 	B 	0.1294	0.3915	0.7893	0.569
Mof_H 	H 	0.1274	0.4101	0.8227	-0.211
Mof_B 	B 	0.1475	0.3347	0.7911	0.049
Mof_H 	H 	0.1519	0.3182	0.8254	-0.073
Mof_O 	O 	0.2872	0.95281	0.4521	-0.505
Mof_B 	B 	0.2417	0.8134	0.3726	0.501
Mof_H 	H 	0.2355	0.7782	0.3864	-0.205
Mof_B 	B 	0.2335	0.9072	0.354	0.026
Mof_H 	H 	0.2213	0.9413	0.3417	-0.057
Mof_B 	B 	0.2107	0.8706	0.3915	0.57
Mof_H 	H 	0.1773	0.8726	0.4101	-0.212
Mof_B 	B 	0.2089	0.8525	0.3347	0.049
Mof_H 	H 	0.1746	0.8481	0.3182	-0.073
Mof_O 	O 	0.7128	0.95281	0.5479	-0.505
Mof_B 	B 	0.7583	0.8134	0.6274	0.503
Mof_H 	H 	0.7645	0.7782	0.6136	-0.204
Mof_B 	B 	0.7665	0.9072	0.646	0.026
Mof_H 	H 	0.7787	0.9413	0.6583	-0.053
Mof_B 	B 	0.7893	0.8706	0.6085	0.571
Mof_H 	H 	0.8227	0.8726	0.5899	-0.208
Mof_B 	B 	0.7911	0.8525	0.6653	0.052
Mof_H 	H 	0.8254	0.8481	0.6818	-0.068
Mof_O 	O 	0.2872	0.04719	0.5479	-0.523
Mof_B 	B 	0.2417	0.1866	0.6274	0.496
Mof_H 	H 	0.2355	0.2218	0.6136	-0.204
Mof_B 	B 	0.2335	0.0928	0.646	0.03
Mof_H 	H 	0.2213	0.0587	0.6583	-0.068
Mof_B 	B 	0.2107	0.1294	0.6085	0.568
Mof_H 	H 	0.1773	0.1274	0.5899	-0.215
Mof_B 	B 	0.2089	0.1475	0.6653	0.048
Mof_H 	H 	0.1746	0.1519	0.6818	-0.076
Mof_O 	O 	0.7128	0.04719	0.4521	-0.523
Mof_B 	B 	0.7583	0.1866	0.3726	0.497
Mof_H 	H 	0.7645	0.2218	0.3864	-0.203
Mof_B 	B 	0.7665	0.0928	0.354	0.03
Mof_H 	H 	0.7787	0.0587	0.3417	-0.066
Mof_B 	B 	0.7893	0.1294	0.3915	0.569
Mof_H 	H 	0.8227	0.1274	0.4101	-0.211
Mof_B 	B 	0.7911	0.1475	0.3347	0.049
Mof_H 	H 	0.8254	0.1519	0.3182	-0.073
Mof_O 	O 	0.7872	0.9521	0.54719	-0.503
Mof_B 	B 	0.7417	0.8726	0.6866	0.504
Mof_H 	H 	0.7355	0.8864	0.7218	-0.201
Mof_B 	B 	0.7335	0.854	0.5928	0.023
Mof_H 	H 	0.7213	0.8417	0.5587	-0.059
Mof_B 	B 	0.7107	0.8915	0.6294	0.572
Mof_H 	H 	0.6773	0.9101	0.6274	-0.208
Mof_B 	B 	0.7089	0.8347	0.6475	0.05
Mof_H 	H 	0.6746	0.8182	0.6519	-0.072
Mof_O 	O 	0.2128	0.0479	0.54719	-0.524
Mof_B 	B 	0.2583	0.1274	0.6866	0.496
Mof_H 	H 	0.2645	0.1136	0.7218	-0.206
Mof_B 	B 	0.2665	0.146	0.5928	0.032
Mof_H 	H 	0.2787	0.1583	0.5587	-0.063
Mof_B 	B 	0.2893	0.1085	0.6294	0.567
Mof_H 	H 	0.3227	0.0899	0.6274	-0.214
Mof_B 	B 	0.2911	0.1653	0.6475	0.05
Mof_H 	H 	0.3254	0.1818	0.6519	-0.074
Mof_O 	O 	0.7872	0.0479	0.45281	-0.521
Mof_B 	B 	0.7417	0.1274	0.3134	0.496
Mof_H 	H 	0.7355	0.1136	0.2782	-0.207
Mof_B 	B 	0.7335	0.146	0.4072	0.032
Mof_H 	H 	0.7213	0.1583	0.4413	-0.062
Mof_B 	B 	0.7107	0.1085	0.3706	0.566
Mof_H 	H 	0.6773	0.0899	0.3726	-0.215
Mof_B 	B 	0.7089	0.1653	0.3525	0.049
Mof_H 	H 	0.6746	0.1818	0.3481	-0.074
Mof_O 	O 	0.2128	0.9521	0.45281	-0.507
Mof_B 	B 	0.2583	0.8726	0.3134	0.502
Mof_H 	H 	0.2645	0.8864	0.2782	-0.204
Mof_B 	B 	0.2665	0.854	0.4072	0.024
Mof_H 	H 	0.2787	0.8417	0.4413	-0.06
Mof_B 	B 	0.2893	0.8915	0.3706	0.572
Mof_H 	H 	0.3227	0.9101	0.3726	-0.209
Mof_B 	B 	0.2911	0.8347	0.3525	0.049
Mof_H 	H 	0.3254	0.8182	0.3481	-0.072
Mof_O 	O 	0.9521	0.45281	0.2128	-0.507
Mof_B 	B 	0.8726	0.3134	0.2583	0.502
Mof_H 	H 	0.8864	0.2782	0.2645	-0.204
Mof_B 	B 	0.854	0.4072	0.2665	0.024
Mof_H 	H 	0.8417	0.4413	0.2787	-0.06
Mof_B 	B 	0.8915	0.3706	0.2893	0.572
Mof_H 	H 	0.9101	0.3726	0.3227	-0.209
Mof_B 	B 	0.8347	0.3525	0.2911	0.049
Mof_H 	H 	0.8182	0.3481	0.3254	-0.072
Mof_O 	O 	0.0479	0.45281	0.7872	-0.521
Mof_B 	B 	0.1274	0.3134	0.7417	0.496
Mof_H 	H 	0.1136	0.2782	0.7355	-0.207
Mof_B 	B 	0.146	0.4072	0.7335	0.032
Mof_H 	H 	0.1583	0.4413	0.7213	-0.062
Mof_B 	B 	0.1085	0.3706	0.7107	0.566
Mof_H 	H 	0.0899	0.3726	0.6773	-0.215
Mof_B 	B 	0.1653	0.3525	0.7089	0.049
Mof_H 	H 	0.1818	0.3481	0.6746	-0.074
Mof_O 	O 	0.0479	0.54719	0.2128	-0.524
Mof_B 	B 	0.1274	0.6866	0.2583	0.496
Mof_H 	H 	0.1136	0.7218	0.2645	-0.206
Mof_B 	B 	0.146	0.5928	0.2665	0.032
Mof_H 	H 	0.1583	0.5587	0.2787	-0.063
Mof_B 	B 	0.1085	0.6294	0.2893	0.567
Mof_H 	H 	0.0899	0.6274	0.3227	-0.214
Mof_B 	B 	0.1653	0.6475	0.2911	0.05
Mof_H 	H 	0.1818	0.6519	0.3254	-0.074
Mof_O 	O 	0.9521	0.54719	0.7872	-0.503
Mof_B 	B 	0.8726	0.6866	0.7417	0.504
Mof_H 	H 	0.8864	0.7218	0.7355	-0.201
Mof_B 	B 	0.854	0.5928	0.7335	0.023
Mof_H 	H 	0.8417	0.5587	0.7213	-0.059
Mof_B 	B 	0.8915	0.6294	0.7107	0.572
Mof_H 	H 	0.9101	0.6274	0.6773	-0.208
Mof_B 	B 	0.8347	0.6475	0.7089	0.05
Mof_H 	H 	0.8182	0.6519	0.6746	-0.072
Mof_O 	O 	0.45281	0.7872	0.0479	-0.521
Mof_B 	B 	0.3134	0.7417	0.1274	0.496
Mof_H 	H 	0.2782	0.7355	0.1136	-0.207
Mof_B 	B 	0.4072	0.7335	0.146	0.032
Mof_H 	H 	0.4413	0.7213	0.1583	-0.062
Mof_B 	B 	0.3706	0.7107	0.1085	0.566
Mof_H 	H 	0.3726	0.6773	0.0899	-0.215
Mof_B 	B 	0.3525	0.7089	0.1653	0.049
Mof_H 	H 	0.3481	0.6746	0.1818	-0.074
Mof_O 	O 	0.45281	0.2128	0.9521	-0.507
Mof_B 	B 	0.3134	0.2583	0.8726	0.502
Mof_H 	H 	0.2782	0.2645	0.8864	-0.204
Mof_B 	B 	0.4072	0.2665	0.854	0.024
Mof_H 	H 	0.4413	0.2787	0.8417	-0.06
Mof_B 	B 	0.3706	0.2893	0.8915	0.572
Mof_H 	H 	0.3726	0.3227	0.9101	-0.209
Mof_B 	B 	0.3525	0.2911	0.8347	0.049
Mof_H 	H 	0.3481	0.3254	0.8182	-0.072
Mof_O 	O 	0.54719	0.7872	0.9521	-0.503
Mof_B 	B 	0.6866	0.7417	0.8726	0.504
Mof_H 	H 	0.7218	0.7355	0.8864	-0.201
Mof_B 	B 	0.5928	0.7335	0.854	0.023
Mof_H 	H 	0.5587	0.7213	0.8417	-0.059
Mof_B 	B 	0.6294	0.7107	0.8915	0.572
Mof_H 	H 	0.6274	0.6773	0.9101	-0.208
Mof_B 	B 	0.6475	0.7089	0.8347	0.05
Mof_H 	H 	0.6519	0.6746	0.8182	-0.072
Mof_O 	O 	0.54719	0.2128	0.0479	-0.524
Mof_B 	B 	0.6866	0.2583	0.1274	0.496
Mof_H 	H 	0.7218	0.2645	0.1136	-0.206
Mof_B 	B 	0.5928	0.2665	0.146	0.032
Mof_H 	H 	0.5587	0.2787	0.1583	-0.063
Mof_B 	B 	0.6294	0.2893	0.1085	0.567
Mof_H 	H 	0.6274	0.3227	0.0899	-0.214
Mof_B 	B 	0.6475	0.2911	0.1653	0.05
Mof_H 	H 	0.6519	0.3254	0.1818	-0.074
Mof_Cu	Cu	0.5	0.70375	-0	0.906
Mof_Cu	Cu	0.5	0.29625	-0	0.906
Mof_Cu	Cu	2.63864e-33	0.5	0.70375	0.906
Mof_Cu	Cu	-3.04098e-33	0.5	0.29625	0.906
Mof_Cu	Cu	0.70375	0	0.5	0.906
Mof_Cu	Cu	0.29625	0	0.5	0.906
Mof_Cu	Cu	0.20375	0	0.5	0.905
Mof_Cu	Cu	0.79625	0	0.5	0.906
Mof_Cu	Cu	-5.31802e-33	0.5	0.79625	0.906
Mof_Cu	Cu	7.6394e-34	0.5	0.20375	0.905
Mof_Cu	Cu	0.5	0.20375	-0	0.905
Mof_Cu	Cu	0.5	0.79625	-0	0.906
Mof_C 	C 	0.5966	0.75	0.0966	-0.74
Mof_C 	C 	0.678	0.75	0.178	-0.655
Mof_C 	C 	0.5617	0.75	0.0617	0.666
Mof_C 	C 	0.7167	0.75	0.2167	0.435
Mof_C 	C 	0.4034	0.25	0.0966	-0.742
Mof_C 	C 	0.322	0.25	0.178	-0.654
Mof_C 	C 	0.4383	0.25	0.0617	0.667
Mof_C 	C 	0.2833	0.25	0.2167	0.43
Mof_C 	C 	0.4034	0.75	0.9034	-0.733
Mof_C 	C 	0.322	0.75	0.822	-0.659
Mof_C 	C 	0.4383	0.75	0.9383	0.662
Mof_C 	C 	0.2833	0.75	0.7833	0.436
Mof_C 	C 	0.5966	0.25	0.9034	-0.734
Mof_C 	C 	0.678	0.25	0.822	-0.658
Mof_C 	C 	0.5617	0.25	0.9383	0.662
Mof_C 	C 	0.7167	0.25	0.7833	0.436
Mof_C 	C 	0.0966	0.5966	0.75	-0.74
Mof_C 	C 	0.178	0.678	0.75	-0.655
Mof_C 	C 	0.0617	0.5617	0.75	0.666
Mof_C 	C 	0.2167	0.7167	0.75	0.435
Mof_C 	C 	0.0966	0.4034	0.25	-0.742
Mof_C 	C 	0.178	0.322	0.25	-0.654
Mof_C 	C 	0.0617	0.4383	0.25	0.667
Mof_C 	C 	0.2167	0.2833	0.25	0.43
Mof_C 	C 	0.9034	0.4034	0.75	-0.733
Mof_C 	C 	0.822	0.322	0.75	-0.659
Mof_C 	C 	0.9383	0.4383	0.75	0.662
Mof_C 	C 	0.7833	0.2833	0.75	0.436
Mof_C 	C 	0.9034	0.5966	0.25	-0.734
Mof_C 	C 	0.822	0.678	0.25	-0.658
Mof_C 	C 	0.9383	0.5617	0.25	0.662
Mof_C 	C 	0.7833	0.7167	0.25	0.436
Mof_C 	C 	0.75	0.0966	0.5966	-0.74
Mof_C 	C 	0.75	0.178	0.678	-0.655
Mof_C 	C 	0.75	0.0617	0.5617	0.666
Mof_C 	C 	0.75	0.2167	0.7167	0.435
Mof_C 	C 	0.25	0.0966	0.4034	-0.742
Mof_C 	C 	0.25	0.178	0.322	-0.654
Mof_C 	C 	0.25	0.0617	0.4383	0.667
Mof_C 	C 	0.25	0.2167	0.2833	0.43
Mof_C 	C 	0.75	0.9034	0.4034	-0.733
Mof_C 	C 	0.75	0.822	0.322	-0.659
Mof_C 	C 	0.75	0.9383	0.4383	0.662
Mof_C 	C 	0.75	0.7833	0.2833	0.436
Mof_C 	C 	0.25	0.9034	0.5966	-0.734
Mof_C 	C 	0.25	0.822	0.678	-0.658
Mof_C 	C 	0.25	0.9383	0.5617	0.662
Mof_C 	C 	0.25	0.7833	0.7167	0.436
Mof_C 	C 	0.4034	0.25	0.9034	-0.734
Mof_C 	C 	0.322	0.25	0.822	-0.658
Mof_C 	C 	0.4383	0.25	0.9383	0.662
Mof_C 	C 	0.2833	0.25	0.7833	0.434
Mof_C 	C 	0.5966	0.75	0.9034	-0.733
Mof_C 	C 	0.678	0.75	0.822	-0.659
Mof_C 	C 	0.5617	0.75	0.9383	0.662
Mof_C 	C 	0.7167	0.75	0.7833	0.438
Mof_C 	C 	0.5966	0.25	0.0966	-0.741
Mof_C 	C 	0.678	0.25	0.178	-0.654
Mof_C 	C 	0.5617	0.25	0.0617	0.667
Mof_C 	C 	0.7167	0.25	0.2167	0.432
Mof_C 	C 	0.4034	0.75	0.0966	-0.74
Mof_C 	C 	0.322	0.75	0.178	-0.655
Mof_C 	C 	0.4383	0.75	0.0617	0.666
Mof_C 	C 	0.2833	0.75	0.2167	0.433
Mof_C 	C 	0.9034	0.4034	0.25	-0.734
Mof_C 	C 	0.822	0.322	0.25	-0.658
Mof_C 	C 	0.9383	0.4383	0.25	0.662
Mof_C 	C 	0.7833	0.2833	0.25	0.434
Mof_C 	C 	0.9034	0.5966	0.75	-0.733
Mof_C 	C 	0.822	0.678	0.75	-0.659
Mof_C 	C 	0.9383	0.5617	0.75	0.662
Mof_C 	C 	0.7833	0.7167	0.75	0.438
Mof_C 	C 	0.0966	0.5966	0.25	-0.741
Mof_C 	C 	0.178	0.678	0.25	-0.654
Mof_C 	C 	0.0617	0.5617	0.25	0.667
Mof_C 	C 	0.2167	0.7167	0.25	0.432
Mof_C 	C 	0.0966	0.4034	0.75	-0.74
Mof_C 	C 	0.178	0.322	0.75	-0.655
Mof_C 	C 	0.0617	0.4383	0.75	0.666
Mof_C 	C 	0.2167	0.2833	0.75	0.433
Mof_C 	C 	0.25	0.9034	0.4034	-0.734
Mof_C 	C 	0.25	0.822	0.322	-0.658
Mof_C 	C 	0.25	0.9383	0.4383	0.662
Mof_C 	C 	0.25	0.7833	0.2833	0.434
Mof_C 	C 	0.75	0.9034	0.5966	-0.733
Mof_C 	C 	0.75	0.822	0.678	-0.659
Mof_C 	C 	0.75	0.9383	0.5617	0.662
Mof_C 	C 	0.75	0.7833	0.7167	0.438
Mof_C 	C 	0.25	0.0966	0.5966	-0.741
Mof_C 	C 	0.25	0.178	0.678	-0.654
Mof_C 	C 	0.25	0.0617	0.5617	0.667
Mof_C 	C 	0.25	0.2167	0.7167	0.432
Mof_C 	C 	0.75	0.0966	0.4034	-0.74
Mof_C 	C 	0.75	0.178	0.322	-0.655
Mof_C 	C 	0.75	0.0617	0.4383	0.666
Mof_C 	C 	0.75	0.2167	0.2833	0.433
Mof_C 	C 	0.7162	0.7838	0.25	-0.503
Mof_H 	H 	0.6932	0.8068	0.25	0.18
Mof_C 	C 	0.2838	0.2162	0.25	-0.5
Mof_H 	H 	0.3068	0.1932	0.25	0.177
Mof_C 	C 	0.2838	0.7838	0.75	-0.503
Mof_H 	H 	0.3068	0.8068	0.75	0.181
Mof_C 	C 	0.7162	0.2162	0.75	-0.502
Mof_H 	H 	0.6932	0.1932	0.75	0.179
Mof_C 	C 	0.25	0.7162	0.7838	-0.503
Mof_H 	H 	0.25	0.6932	0.8068	0.18
Mof_C 	C 	0.25	0.2838	0.2162	-0.5
Mof_H 	H 	0.25	0.3068	0.1932	0.177
Mof_C 	C 	0.75	0.2838	0.7838	-0.503
Mof_H 	H 	0.75	0.3068	0.8068	0.181
Mof_C 	C 	0.75	0.7162	0.2162	-0.502
Mof_H 	H 	0.75	0.6932	0.1932	0.179
Mof_C 	C 	0.7838	0.25	0.7162	-0.503
Mof_H 	H 	0.8068	0.25	0.6932	0.18
Mof_C 	C 	0.2162	0.25	0.2838	-0.5
Mof_H 	H 	0.1932	0.25	0.3068	0.177
Mof_C 	C 	0.7838	0.75	0.2838	-0.503
Mof_H 	H 	0.8068	0.75	0.3068	0.181
Mof_C 	C 	0.2162	0.75	0.7162	-0.502
Mof_H 	H 	0.1932	0.75	0.6932	0.179
Mof_C 	C 	0.2838	0.2162	0.75	-0.501
Mof_H 	H 	0.3068	0.1932	0.75	0.178
Mof_C 	C 	0.7162	0.7838	0.75	-0.504
Mof_H 	H 	0.6932	0.8068	0.75	0.181
Mof_C 	C 	0.7162	0.2162	0.25	-0.501
Mof_H 	H 	0.6932	0.1932	0.25	0.177
Mof_C 	C 	0.2838	0.7838	0.25	-0.501
Mof_H 	H 	0.3068	0.8068	0.25	0.179
Mof_C 	C 	0.75	0.2838	0.2162	-0.501
Mof_H 	H 	0.75	0.3068	0.1932	0.178
Mof_C 	C 	0.75	0.7162	0.7838	-0.504
Mof_H 	H 	0.75	0.6932	0.8068	0.181
Mof_C 	C 	0.25	0.7162	0.2162	-0.501
Mof_H 	H 	0.25	0.6932	0.1932	0.177
Mof_C 	C 	0.25	0.2838	0.7838	-0.501
Mof_H 	H 	0.25	0.3068	0.8068	0.179
Mof_C 	C 	0.2162	0.75	0.2838	-0.501
Mof_H 	H 	0.1932	0.75	0.3068	0.178
Mof_C 	C 	0.7838	0.75	0.7162	-0.504
Mof_H 	H 	0.8068	0.75	0.6932	0.181
Mof_C 	C 	0.2162	0.25	0.7162	-0.501
Mof_H 	H 	0.1932	0.25	0.6932	0.177
Mof_C 	C 	0.7838	0.25	0.2838	-0.501
Mof_H 	H 	0.8068	0.25	0.3068	0.179
_end
