data_functionalizedCrystal
_audit_creation_method	'EQeq! by Chris Wilmer'
_symmetry_space_group_name_H-M	'P1'
_symmetry_Int_Tables_number	1
_symmetry_cell_setting	triclinic
loop_
_symmetry_equiv_pos_as_xyz
  x,y,z
_cell_length_a	31.8565
_cell_length_b	31.8565
_cell_length_c	12.6269
_cell_angle_alpha	90
_cell_angle_beta	90
_cell_angle_gamma	120
loop_
_atom_site_label
_atom_site_type_symbol
_atom_site_fract_x
_atom_site_fract_y
_atom_site_fract_z
_atom_site_charge
Mof_Zn	Zn	0.70923	0.01641	0.6881	1.276
Mof_O 	O 	0.69989	0.00249	0.5343	-0.496
Mof_O 	O 	0.70834	0.00848	0.3614	-0.462
Mof_C 	C 	0.77704	0.0572	0.4657	-0.274
Mof_H 	H 	0.7883	0.0703	0.5342	0.122
Mof_C 	C 	0.7258	0.0211	0.4529	0.427
Mof_C 	C 	0.698	0.9418	0.8437	0.074
Mof_H 	H 	0.7104	0.9685	0.891	0.02
Mof_C 	C 	0.6894	0.8978	0.8812	-0.121
Mof_H 	H 	0.6961	0.8948	0.9532	0.076
Mof_C 	C 	0.671	0.8571	0.8146	0.043
Mof_C 	C 	0.6625	0.8653	0.7113	-0.127
Mof_H 	H 	0.6497	0.8392	0.6622	0.076
Mof_C 	C 	0.6722	0.91	0.6783	0.076
Mof_H 	H 	0.6663	0.9141	0.6063	0.013
Mof_C 	C 	0.8846	0.1287	0.4785	-0.07
Mof_H 	H 	0.8663	0.1241	0.5411	0.015
Mof_C 	C 	0.9339	0.1623	0.4773	0.197
Mof_C 	C 	0.9608	0.169	0.3857	-0.149
Mof_H 	H 	0.9945	0.1919	0.3848	0.028
Mof_C 	C 	0.9383	0.1422	0.2953	0.04
Mof_H 	H 	0.9567	0.1468	0.2327	-0.638
Mof_C 	C 	0.889	0.1087	0.2966	-0.064
Mof_H 	H 	0.8736	0.0903	0.2348	0.048
Mof_C 	C 	0.8621	0.1019	0.3882	0.016
Mof_O 	O 	0.9562	0.1882	0.5627	0.686
Mof_H 	H 	0.9357	0.1888	0.6036	0.088
Mof_C 	C 	0.8091	0.0727	0.3851	0.003
Mof_H 	H 	0.7954	0.0634	0.3164	0.034
Mof_C 	C 	0.9439	0.2005	0.8304	0.053
Mof_H 	H 	0.9296	0.2138	0.7859	0.061
Mof_C 	C 	0.9905	0.2299	0.8697	0.151
Mof_H 	H 	0.0079	0.2633	0.852	-0.022
Mof_C 	C 	0.0115	0.2103	0.9349	-0.172
Mof_H 	H 	0.0433	0.2304	0.9617	0.969
Mof_C 	C 	0.986	0.1614	0.9607	0.52
Mof_C 	C 	0.9395	0.132	0.9214	-0.293
Mof_H 	H 	0.9221	0.0985	0.9391	0.107
Mof_C 	C 	0.9185	0.1515	0.8563	0.094
Mof_O 	O 	0.0071	0.1427	0.0215	-1.169
Mof_H 	H 	0.0159	0.1269	0.9836	0.467
Mof_C 	C 	0.86728	0.1174	0.8162	-0.406
Mof_H 	H 	0.854	0.0836	0.8272	-0.066
Mof_C 	C 	0.84	0.1323	0.7665	0.223
Mof_H 	H 	0.8523	0.1658	0.7533	-0.488
Mof_C 	C 	0.7913	0.0969	0.733	0.744
Mof_O 	O 	0.773	0.0527	0.7519	-0.979
Mof_O 	O 	0.7679	0.1132	0.6869	0.089
Mof_C 	C 	0.8912	0.1074	0.3089	-0.064
Mof_H 	H 	0.8775	0.0882	0.2472	-0.002
Mof_C 	C 	0.9407	0.1399	0.3139	0.179
Mof_C 	C 	0.9606	0.168	0.4041	-0.118
Mof_H 	H 	0.9945	0.1902	0.4076	0.05
Mof_C 	C 	0.931	0.1635	0.4893	0.063
Mof_H 	H 	0.9446	0.1827	0.551	-0.773
Mof_C 	C 	0.8815	0.131	0.4843	-0.069
Mof_H 	H 	0.8613	0.1279	0.5425	0.054
Mof_C 	C 	0.8616	0.1029	0.3941	0.013
Mof_O 	O 	0.9676	0.1528	0.226	0.553
Mof_H 	H 	0.95	0.149	0.1733	0.073
Mof_C 	C 	0.8108	0.064	0.3931	0.017
Mof_H 	H 	0.8009	0.0415	0.3362	-0.007
Mof_C 	C 	0.9493	0.19348	0.8463	-0.08
Mof_H 	H 	0.9352	0.2028	0.7914	-0.052
Mof_C 	C 	0.99431	0.2269	0.8873	-0.036
Mof_H 	H 	0.011	0.2591	0.8604	0.003
Mof_C 	C 	0.0149	0.2133	0.9677	-0.448
Mof_H 	H 	0.0457	0.2362	0.9958	-0.677
Mof_C 	C 	0.99047	0.1663	0.0071	0.034
Mof_C 	C 	0.94546	0.1328	0.9661	0.077
Mof_H 	H 	0.9288	0.1007	0.993	-0.045
Mof_C 	C 	0.92487	0.1464	0.8857	-0.287
Mof_O 	O 	0.01263	0.1526	0.0773	0.547
Mof_H 	H 	0.9928	0.125	0.1009	-0.007
Mof_C 	C 	0.8754	0.10796	0.8447	1.243
Mof_H 	H 	0.8646	0.0752	0.8629	-0.34
Mof_C 	C 	0.84595	0.11675	0.785	-1.327
Mof_H 	H 	0.8557	0.1487	0.7618	0.739
Mof_C 	C 	0.79875	0.07638	0.7566	1.164
Mof_O 	O 	0.78765	0.03346	0.7749	-0.062
Mof_O 	O 	0.77057	0.08635	0.7097	-1.006
Mof_N 	N 	0.68952	0.94843	0.7428	-0.243
Mof_Zn	Zn	0.3759	0.34974	0.02143	1.275
Mof_O 	O 	0.36656	0.33582	0.86763	-0.497
Mof_O 	O 	0.37501	0.34181	0.69473	-0.463
Mof_C 	C 	0.44371	0.39053	0.79903	-0.275
Mof_H 	H 	0.45497	0.40363	0.86753	0.122
Mof_C 	C 	0.39247	0.35443	0.78623	0.427
Mof_C 	C 	0.36467	0.27513	0.17703	0.074
Mof_H 	H 	0.37707	0.30183	0.22433	0.02
Mof_C 	C 	0.35607	0.23113	0.21453	-0.121
Mof_H 	H 	0.36277	0.22813	0.28653	0.076
Mof_C 	C 	0.33767	0.19043	0.14793	0.043
Mof_C 	C 	0.32917	0.19863	0.04463	-0.127
Mof_H 	H 	0.31637	0.17253	0.99553	0.077
Mof_C 	C 	0.33887	0.24333	0.01163	0.076
Mof_H 	H 	0.33297	0.24743	0.93963	0.013
Mof_C 	C 	0.55127	0.46203	0.81183	-0.07
Mof_H 	H 	0.53297	0.45743	0.87443	0.015
Mof_C 	C 	0.60057	0.49563	0.81063	0.197
Mof_C 	C 	0.62747	0.50233	0.71903	-0.149
Mof_H 	H 	0.66117	0.52523	0.71813	0.028
Mof_C 	C 	0.60497	0.47553	0.62863	0.04
Mof_H 	H 	0.62337	0.48013	0.56603	-0.638
Mof_C 	C 	0.55567	0.44203	0.62993	-0.064
Mof_H 	H 	0.54027	0.42363	0.56813	0.049
Mof_C 	C 	0.52877	0.43523	0.72153	0.016
Mof_O 	O 	0.62287	0.52153	0.89603	0.686
Mof_H 	H 	0.60237	0.52213	0.93693	0.088
Mof_C 	C 	0.47577	0.40603	0.71843	0.003
Mof_H 	H 	0.46207	0.39673	0.64973	0.034
Mof_C 	C 	0.61057	0.53383	0.16373	0.053
Mof_H 	H 	0.59627	0.54713	0.11923	0.06
Mof_C 	C 	0.65717	0.56323	0.20303	0.149
Mof_H 	H 	0.67457	0.59663	0.18533	-0.021
Mof_C 	C 	0.67817	0.54363	0.26823	-0.169
Mof_H 	H 	0.70997	0.56373	0.29503	0.96
Mof_C 	C 	0.65267	0.49473	0.29403	0.53
Mof_C 	C 	0.60617	0.46533	0.25473	-0.294
Mof_H 	H 	0.58877	0.43183	0.27243	0.107
Mof_C 	C 	0.58517	0.48483	0.18963	0.094
Mof_O 	O 	0.67377	0.47603	0.35483	-1.168
Mof_H 	H 	0.68257	0.46023	0.31693	0.467
Mof_C 	C 	0.53395	0.45073	0.14953	-0.406
Mof_H 	H 	0.52067	0.41693	0.16053	-0.066
Mof_C 	C 	0.50667	0.46563	0.09983	0.223
Mof_H 	H 	0.51897	0.49913	0.08663	-0.488
Mof_C 	C 	0.45797	0.43023	0.06633	0.744
Mof_O 	O 	0.43967	0.38603	0.08523	-0.979
Mof_O 	O 	0.43457	0.44653	0.02023	0.089
Mof_C 	C 	0.55787	0.44073	0.64223	-0.064
Mof_H 	H 	0.54417	0.42153	0.58053	-0.002
Mof_C 	C 	0.60737	0.47323	0.64723	0.179
Mof_C 	C 	0.62727	0.50133	0.73743	-0.118
Mof_H 	H 	0.66117	0.52353	0.74093	0.05
Mof_C 	C 	0.59767	0.49683	0.82263	0.063
Mof_H 	H 	0.61127	0.51603	0.88433	-0.773
Mof_C 	C 	0.54817	0.46433	0.81763	-0.069
Mof_H 	H 	0.52797	0.46123	0.87583	0.054
Mof_C 	C 	0.52827	0.43623	0.72743	0.013
Mof_O 	O 	0.63427	0.48613	0.55933	0.553
Mof_H 	H 	0.61667	0.48233	0.50663	0.073
Mof_C 	C 	0.47747	0.39733	0.72643	0.017
Mof_H 	H 	0.46757	0.37483	0.66953	-0.007
Mof_C 	C 	0.61597	0.52681	0.17963	-0.081
Mof_H 	H 	0.60187	0.53613	0.12473	-0.051
Mof_C 	C 	0.66098	0.56023	0.22063	-0.036
Mof_H 	H 	0.67767	0.59243	0.19373	0.003
Mof_C 	C 	0.68157	0.54663	0.30103	-0.446
Mof_H 	H 	0.71237	0.56953	0.32913	-0.669
Mof_C 	C 	0.65714	0.49963	0.34043	0.023
Mof_C 	C 	0.61213	0.46613	0.29943	0.074
Mof_H 	H 	0.59547	0.43403	0.32633	-0.045
Mof_C 	C 	0.59154	0.47973	0.21903	-0.288
Mof_O 	O 	0.6793	0.48593	0.41063	0.548
Mof_H 	H 	0.65947	0.45833	0.43423	-0.007
Mof_C 	C 	0.54207	0.44129	0.17803	1.243
Mof_H 	H 	0.53127	0.40853	0.19623	-0.341
Mof_C 	C 	0.51262	0.45008	0.11833	-1.327
Mof_H 	H 	0.52237	0.48203	0.09513	0.739
Mof_C 	C 	0.46542	0.40971	0.08993	1.164
Mof_O 	O 	0.45432	0.36679	0.10823	-0.062
Mof_O 	O 	0.43724	0.41968	0.04303	-1.006
Mof_N 	N 	0.35619	0.28176	0.07613	-0.243
Mof_Zn	Zn	0.04256	0.68308	0.35477	1.275
Mof_O 	O 	0.03322	0.66916	0.20097	-0.497
Mof_O 	O 	0.04167	0.67515	0.02807	-0.462
Mof_C 	C 	0.11037	0.72387	0.13237	-0.275
Mof_H 	H 	0.12163	0.73697	0.20087	0.122
Mof_C 	C 	0.05913	0.68777	0.11957	0.427
Mof_C 	C 	0.03133	0.60847	0.51037	0.074
Mof_H 	H 	0.04373	0.63517	0.55767	0.02
Mof_C 	C 	0.02273	0.56447	0.54787	-0.121
Mof_H 	H 	0.02943	0.56147	0.61987	0.076
Mof_C 	C 	0.00433	0.52377	0.48127	0.043
Mof_C 	C 	0.99583	0.53197	0.37797	-0.128
Mof_H 	H 	0.98303	0.50587	0.32887	0.077
Mof_C 	C 	0.00553	0.57667	0.34497	0.077
Mof_H 	H 	0.99963	0.58077	0.27297	0.012
Mof_C 	C 	0.21793	0.79537	0.14517	-0.07
Mof_H 	H 	0.19963	0.79077	0.20777	0.015
Mof_C 	C 	0.26723	0.82897	0.14397	0.197
Mof_C 	C 	0.29413	0.83567	0.05237	-0.149
Mof_H 	H 	0.32783	0.85857	0.05147	0.027
Mof_C 	C 	0.27163	0.80887	0.96197	0.039
Mof_H 	H 	0.29003	0.81347	0.89937	-0.638
Mof_C 	C 	0.22233	0.77537	0.96327	-0.065
Mof_H 	H 	0.20693	0.75697	0.90147	0.049
Mof_C 	C 	0.19543	0.76857	0.05487	0.017
Mof_O 	O 	0.28953	0.85487	0.22937	0.686
Mof_H 	H 	0.26903	0.85547	0.27027	0.088
Mof_C 	C 	0.14243	0.73937	0.05177	0.002
Mof_H 	H 	0.12873	0.73007	0.98307	0.033
Mof_C 	C 	0.27723	0.86717	0.49707	0.053
Mof_H 	H 	0.26293	0.88047	0.45257	0.06
Mof_C 	C 	0.32383	0.89657	0.53637	0.149
Mof_H 	H 	0.34123	0.92997	0.51867	-0.021
Mof_C 	C 	0.34483	0.87697	0.60157	-0.169
Mof_H 	H 	0.37663	0.89707	0.62837	0.96
Mof_C 	C 	0.31933	0.82807	0.62737	0.53
Mof_C 	C 	0.27283	0.79867	0.58807	-0.294
Mof_H 	H 	0.25543	0.76517	0.60577	0.107
Mof_C 	C 	0.25183	0.81817	0.52297	0.094
Mof_O 	O 	0.34043	0.80937	0.68817	-1.168
Mof_H 	H 	0.34923	0.79357	0.65027	0.467
Mof_C 	C 	0.20061	0.78407	0.48287	-0.406
Mof_H 	H 	0.18733	0.75027	0.49387	-0.066
Mof_C 	C 	0.17333	0.79897	0.43317	0.223
Mof_H 	H 	0.18563	0.83247	0.41997	-0.488
Mof_C 	C 	0.12463	0.76357	0.39967	0.744
Mof_O 	O 	0.10633	0.71937	0.41857	-0.979
Mof_O 	O 	0.10123	0.77987	0.35357	0.089
Mof_C 	C 	0.22453	0.77407	0.97557	-0.064
Mof_H 	H 	0.21083	0.75487	0.91387	-0.002
Mof_C 	C 	0.27403	0.80657	0.98057	0.179
Mof_C 	C 	0.29393	0.83467	0.07077	-0.117
Mof_H 	H 	0.32783	0.85687	0.07427	0.051
Mof_C 	C 	0.26433	0.83017	0.15597	0.063
Mof_H 	H 	0.27793	0.84937	0.21767	-0.773
Mof_C 	C 	0.21483	0.79767	0.15097	-0.069
Mof_H 	H 	0.19463	0.79457	0.20917	0.054
Mof_C 	C 	0.19493	0.76957	0.06077	0.013
Mof_O 	O 	0.30093	0.81947	0.89267	0.553
Mof_H 	H 	0.28333	0.81567	0.83997	0.073
Mof_C 	C 	0.14413	0.73067	0.05977	0.018
Mof_H 	H 	0.13423	0.70817	0.00287	-0.006
Mof_C 	C 	0.28263	0.86015	0.51297	-0.081
Mof_H 	H 	0.26853	0.86947	0.45807	-0.051
Mof_C 	C 	0.32764	0.89357	0.55397	-0.036
Mof_H 	H 	0.34433	0.92577	0.52707	0.003
Mof_C 	C 	0.34823	0.87997	0.63437	-0.446
Mof_H 	H 	0.37903	0.90287	0.66247	-0.67
Mof_C 	C 	0.3238	0.83297	0.67377	0.023
Mof_C 	C 	0.27879	0.79947	0.63277	0.074
Mof_H 	H 	0.26213	0.76737	0.65967	-0.045
Mof_C 	C 	0.2582	0.81307	0.55237	-0.288
Mof_O 	O 	0.34596	0.81927	0.74397	0.548
Mof_H 	H 	0.32613	0.79167	0.76757	-0.007
Mof_C 	C 	0.20873	0.77463	0.51137	1.243
Mof_H 	H 	0.19793	0.74187	0.52957	-0.341
Mof_C 	C 	0.17928	0.78342	0.45167	-1.327
Mof_H 	H 	0.18903	0.81537	0.42847	0.739
Mof_C 	C 	0.13208	0.74305	0.42327	1.164
Mof_O 	O 	0.12098	0.70013	0.44157	-0.062
Mof_O 	O 	0.1039	0.75302	0.37637	-1.006
Mof_N 	N 	0.02285	0.6151	0.40947	-0.243
Mof_Zn	Zn	0.98359	0.69282	0.6881	1.275
Mof_O 	O 	0.99751	0.6974	0.5343	-0.497
Mof_O 	O 	0.99152	0.69986	0.3614	-0.463
Mof_C 	C 	0.9428	0.71984	0.4657	-0.275
Mof_H 	H 	0.9297	0.718	0.5342	0.122
Mof_C 	C 	0.9789	0.7047	0.4529	0.427
Mof_C 	C 	0.0582	0.7562	0.8437	0.074
Mof_H 	H 	0.0315	0.7419	0.891	0.02
Mof_C 	C 	0.1022	0.7916	0.8812	-0.12
Mof_H 	H 	0.1052	0.8013	0.9532	0.075
Mof_C 	C 	0.1429	0.8139	0.8146	0.042
Mof_C 	C 	0.1347	0.7972	0.7113	-0.126
Mof_H 	H 	0.1608	0.8105	0.6622	0.076
Mof_C 	C 	0.09	0.7622	0.6783	0.075
Mof_H 	H 	0.0859	0.7522	0.6063	0.013
Mof_C 	C 	0.8713	0.7559	0.4785	-0.07
Mof_H 	H 	0.8759	0.7422	0.5411	0.015
Mof_C 	C 	0.8377	0.7716	0.4773	0.197
Mof_C 	C 	0.831	0.7918	0.3857	-0.149
Mof_H 	H 	0.8081	0.8026	0.3848	0.028
Mof_C 	C 	0.8578	0.7961	0.2953	0.04
Mof_H 	H 	0.8532	0.8099	0.2327	-0.638
Mof_C 	C 	0.8913	0.7803	0.2966	-0.064
Mof_H 	H 	0.9097	0.7833	0.2348	0.049
Mof_C 	C 	0.8981	0.7602	0.3882	0.016
Mof_O 	O 	0.8118	0.768	0.5627	0.686
Mof_H 	H 	0.8112	0.7469	0.6036	0.088
Mof_C 	C 	0.9273	0.7364	0.3851	0.003
Mof_H 	H 	0.9366	0.732	0.3164	0.034
Mof_C 	C 	0.7995	0.7434	0.8304	0.053
Mof_H 	H 	0.7862	0.7158	0.7859	0.06
Mof_C 	C 	0.7701	0.7606	0.8697	0.149
Mof_H 	H 	0.7367	0.7446	0.852	-0.021
Mof_C 	C 	0.7897	0.8012	0.9349	-0.169
Mof_H 	H 	0.7696	0.8129	0.9617	0.961
Mof_C 	C 	0.8386	0.8246	0.9607	0.53
Mof_C 	C 	0.868	0.8075	0.9214	-0.294
Mof_H 	H 	0.9015	0.8236	0.9391	0.107
Mof_C 	C 	0.8485	0.767	0.8563	0.094
Mof_O 	O 	0.8573	0.8644	0.0215	-1.168
Mof_H 	H 	0.8731	0.889	0.9836	0.467
Mof_C 	C 	0.8826	0.74988	0.8162	-0.406
Mof_H 	H 	0.9164	0.7704	0.8272	-0.066
Mof_C 	C 	0.8677	0.7077	0.7665	0.223
Mof_H 	H 	0.8342	0.6865	0.7533	-0.488
Mof_C 	C 	0.9031	0.6944	0.733	0.744
Mof_O 	O 	0.9473	0.7203	0.7519	-0.979
Mof_O 	O 	0.8868	0.6547	0.6869	0.089
Mof_C 	C 	0.8926	0.7838	0.3089	-0.064
Mof_H 	H 	0.9118	0.7893	0.2472	-0.002
Mof_C 	C 	0.8601	0.8008	0.3139	0.179
Mof_C 	C 	0.832	0.7926	0.4041	-0.118
Mof_H 	H 	0.8098	0.8043	0.4076	0.05
Mof_C 	C 	0.8365	0.7675	0.4893	0.063
Mof_H 	H 	0.8173	0.7619	0.551	-0.773
Mof_C 	C 	0.869	0.7505	0.4843	-0.069
Mof_H 	H 	0.8721	0.7334	0.5425	0.054
Mof_C 	C 	0.8971	0.7587	0.3941	0.013
Mof_O 	O 	0.8472	0.8148	0.226	0.553
Mof_H 	H 	0.851	0.801	0.1733	0.073
Mof_C 	C 	0.936	0.7468	0.3931	0.017
Mof_H 	H 	0.9585	0.7594	0.3362	-0.007
Mof_C 	C 	0.80652	0.75582	0.8463	-0.081
Mof_H 	H 	0.7972	0.7324	0.7914	-0.051
Mof_C 	C 	0.7731	0.76741	0.8873	-0.036
Mof_H 	H 	0.7409	0.7519	0.8604	0.003
Mof_C 	C 	0.7867	0.8016	0.9677	-0.446
Mof_H 	H 	0.7638	0.8095	0.9958	-0.67
Mof_C 	C 	0.8337	0.82417	0.0071	0.023
Mof_C 	C 	0.8672	0.81266	0.9661	0.074
Mof_H 	H 	0.8993	0.8281	0.993	-0.045
Mof_C 	C 	0.8536	0.77847	0.8857	-0.288
Mof_O 	O 	0.8474	0.86003	0.0773	0.548
Mof_H 	H 	0.875	0.8678	0.1009	-0.007
Mof_C 	C 	0.89204	0.76744	0.8447	1.242
Mof_H 	H 	0.9248	0.7894	0.8629	-0.341
Mof_C 	C 	0.88325	0.7292	0.785	-1.327
Mof_H 	H 	0.8513	0.707	0.7618	0.739
Mof_C 	C 	0.92362	0.72237	0.7566	1.164
Mof_O 	O 	0.96654	0.75419	0.7749	-0.062
Mof_O 	O 	0.91365	0.68422	0.7097	-1.006
Mof_N 	N 	0.05157	0.74109	0.7428	-0.243
Mof_Zn	Zn	0.65026	0.02615	0.02143	1.275
Mof_O 	O 	0.66418	0.03073	0.86763	-0.497
Mof_O 	O 	0.65819	0.03319	0.69473	-0.463
Mof_C 	C 	0.60947	0.05317	0.79903	-0.275
Mof_H 	H 	0.59637	0.05133	0.86753	0.122
Mof_C 	C 	0.64557	0.03803	0.78623	0.427
Mof_C 	C 	0.72487	0.08953	0.17703	0.074
Mof_H 	H 	0.69817	0.07523	0.22433	0.02
Mof_C 	C 	0.76887	0.12493	0.21453	-0.121
Mof_H 	H 	0.77187	0.13463	0.28653	0.076
Mof_C 	C 	0.80957	0.14723	0.14793	0.044
Mof_C 	C 	0.80137	0.13053	0.04463	-0.128
Mof_H 	H 	0.82747	0.14383	0.99553	0.078
Mof_C 	C 	0.75667	0.09553	0.01163	0.075
Mof_H 	H 	0.75257	0.08553	0.93963	0.014
Mof_C 	C 	0.53797	0.08923	0.81183	-0.07
Mof_H 	H 	0.54257	0.07553	0.87443	0.015
Mof_C 	C 	0.50437	0.10493	0.81063	0.197
Mof_C 	C 	0.49767	0.12513	0.71903	-0.149
Mof_H 	H 	0.47477	0.13593	0.71813	0.028
Mof_C 	C 	0.52447	0.12943	0.62863	0.04
Mof_H 	H 	0.51987	0.14323	0.56603	-0.638
Mof_C 	C 	0.55797	0.11363	0.62993	-0.064
Mof_H 	H 	0.57637	0.11663	0.56813	0.049
Mof_C 	C 	0.56477	0.09353	0.72153	0.016
Mof_O 	O 	0.47847	0.10133	0.89603	0.686
Mof_H 	H 	0.47787	0.08023	0.93693	0.088
Mof_C 	C 	0.59397	0.06973	0.71843	0.003
Mof_H 	H 	0.60327	0.06533	0.64973	0.034
Mof_C 	C 	0.46617	0.07673	0.16373	0.053
Mof_H 	H 	0.45287	0.04913	0.11923	0.06
Mof_C 	C 	0.43677	0.09393	0.20303	0.149
Mof_H 	H 	0.40337	0.07793	0.18533	-0.021
Mof_C 	C 	0.45637	0.13453	0.26823	-0.169
Mof_H 	H 	0.43627	0.14623	0.29503	0.959
Mof_C 	C 	0.50527	0.15793	0.29403	0.53
Mof_C 	C 	0.53467	0.14083	0.25473	-0.294
Mof_H 	H 	0.56817	0.15693	0.27243	0.107
Mof_C 	C 	0.51517	0.10033	0.18963	0.094
Mof_O 	O 	0.52397	0.19773	0.35483	-1.167
Mof_H 	H 	0.53977	0.22233	0.31693	0.466
Mof_C 	C 	0.54927	0.08321	0.14953	-0.406
Mof_H 	H 	0.58307	0.10373	0.16053	-0.066
Mof_C 	C 	0.53437	0.04103	0.09983	0.222
Mof_H 	H 	0.50087	0.01983	0.08663	-0.489
Mof_C 	C 	0.56977	0.02773	0.06633	0.745
Mof_O 	O 	0.61397	0.05363	0.08523	-0.98
Mof_O 	O 	0.55347	0.98803	0.02023	0.091
Mof_C 	C 	0.55927	0.11713	0.64223	-0.064
Mof_H 	H 	0.57847	0.12263	0.58053	-0.002
Mof_C 	C 	0.52677	0.13413	0.64723	0.179
Mof_C 	C 	0.49867	0.12593	0.73743	-0.118
Mof_H 	H 	0.47647	0.13763	0.74093	0.05
Mof_C 	C 	0.50317	0.10083	0.82263	0.063
Mof_H 	H 	0.48397	0.09523	0.88433	-0.773
Mof_C 	C 	0.53567	0.08383	0.81763	-0.069
Mof_H 	H 	0.53877	0.06673	0.87583	0.054
Mof_C 	C 	0.56377	0.09203	0.72743	0.013
Mof_O 	O 	0.51387	0.14813	0.55933	0.553
Mof_H 	H 	0.51767	0.13433	0.50663	0.073
Mof_C 	C 	0.60267	0.08013	0.72643	0.017
Mof_H 	H 	0.62517	0.09273	0.66953	-0.007
Mof_C 	C 	0.47319	0.08915	0.17963	-0.081
Mof_H 	H 	0.46387	0.06573	0.12473	-0.051
Mof_C 	C 	0.43977	0.10074	0.22063	-0.036
Mof_H 	H 	0.40757	0.08523	0.19373	0.003
Mof_C 	C 	0.45337	0.13493	0.30103	-0.446
Mof_H 	H 	0.43047	0.14283	0.32913	-0.669
Mof_C 	C 	0.50037	0.1575	0.34043	0.022
Mof_C 	C 	0.53387	0.14599	0.29943	0.075
Mof_H 	H 	0.56597	0.16143	0.32633	-0.045
Mof_C 	C 	0.52027	0.1118	0.21903	-0.288
Mof_O 	O 	0.51407	0.19336	0.41063	0.548
Mof_H 	H 	0.54167	0.20113	0.43423	-0.007
Mof_C 	C 	0.55871	0.10077	0.17803	1.244
Mof_H 	H 	0.59147	0.12273	0.19623	-0.341
Mof_C 	C 	0.54992	0.06253	0.11833	-1.329
Mof_H 	H 	0.51797	0.04033	0.09513	0.741
Mof_C 	C 	0.59029	0.0557	0.08993	1.165
Mof_O 	O 	0.63321	0.08752	0.10823	-0.063
Mof_O 	O 	0.58032	0.01755	0.04303	-1.008
Mof_N 	N 	0.71824	0.07442	0.07613	-0.243
Mof_Zn	Zn	0.31692	0.35949	0.35477	1.275
Mof_O 	O 	0.33084	0.36407	0.20097	-0.497
Mof_O 	O 	0.32485	0.36653	0.02807	-0.463
Mof_C 	C 	0.27613	0.38651	0.13237	-0.275
Mof_H 	H 	0.26303	0.38467	0.20087	0.122
Mof_C 	C 	0.31223	0.37137	0.11957	0.427
Mof_C 	C 	0.39153	0.42287	0.51037	0.074
Mof_H 	H 	0.36483	0.40857	0.55767	0.02
Mof_C 	C 	0.43553	0.45827	0.54787	-0.121
Mof_H 	H 	0.43853	0.46797	0.61987	0.076
Mof_C 	C 	0.47623	0.48057	0.48127	0.043
Mof_C 	C 	0.46803	0.46387	0.37797	-0.127
Mof_H 	H 	0.49413	0.47717	0.32887	0.076
Mof_C 	C 	0.42333	0.42887	0.34497	0.076
Mof_H 	H 	0.41923	0.41887	0.27297	0.013
Mof_C 	C 	0.20463	0.42257	0.14517	-0.07
Mof_H 	H 	0.20923	0.40887	0.20777	0.015
Mof_C 	C 	0.17103	0.43827	0.14397	0.197
Mof_C 	C 	0.16433	0.45847	0.05237	-0.149
Mof_H 	H 	0.14143	0.46927	0.05147	0.027
Mof_C 	C 	0.19113	0.46277	0.96197	0.04
Mof_H 	H 	0.18653	0.47657	0.89937	-0.638
Mof_C 	C 	0.22463	0.44697	0.96327	-0.065
Mof_H 	H 	0.24303	0.44997	0.90147	0.049
Mof_C 	C 	0.23143	0.42687	0.05487	0.016
Mof_O 	O 	0.14513	0.43467	0.22937	0.686
Mof_H 	H 	0.14453	0.41357	0.27027	0.088
Mof_C 	C 	0.26063	0.40307	0.05177	0.003
Mof_H 	H 	0.26993	0.39867	0.98307	0.034
Mof_C 	C 	0.13283	0.41007	0.49707	0.053
Mof_H 	H 	0.11953	0.38247	0.45257	0.06
Mof_C 	C 	0.10343	0.42727	0.53637	0.149
Mof_H 	H 	0.07003	0.41127	0.51867	-0.021
Mof_C 	C 	0.12303	0.46787	0.60157	-0.169
Mof_H 	H 	0.10293	0.47957	0.62837	0.96
Mof_C 	C 	0.17193	0.49127	0.62737	0.53
Mof_C 	C 	0.20133	0.47417	0.58807	-0.294
Mof_H 	H 	0.23483	0.49027	0.60577	0.107
Mof_C 	C 	0.18183	0.43367	0.52297	0.094
Mof_O 	O 	0.19063	0.53107	0.68817	-1.168
Mof_H 	H 	0.20643	0.55567	0.65027	0.467
Mof_C 	C 	0.21593	0.41655	0.48287	-0.406
Mof_H 	H 	0.24973	0.43707	0.49387	-0.066
Mof_C 	C 	0.20103	0.37437	0.43317	0.223
Mof_H 	H 	0.16753	0.35317	0.41997	-0.488
Mof_C 	C 	0.23643	0.36107	0.39967	0.744
Mof_O 	O 	0.28063	0.38697	0.41857	-0.979
Mof_O 	O 	0.22013	0.32137	0.35357	0.089
Mof_C 	C 	0.22593	0.45047	0.97557	-0.064
Mof_H 	H 	0.24513	0.45597	0.91387	-0.002
Mof_C 	C 	0.19343	0.46747	0.98057	0.179
Mof_C 	C 	0.16533	0.45927	0.07077	-0.118
Mof_H 	H 	0.14313	0.47097	0.07427	0.051
Mof_C 	C 	0.16983	0.43417	0.15597	0.063
Mof_H 	H 	0.15063	0.42857	0.21767	-0.773
Mof_C 	C 	0.20233	0.41717	0.15097	-0.069
Mof_H 	H 	0.20543	0.40007	0.20917	0.054
Mof_C 	C 	0.23043	0.42537	0.06077	0.013
Mof_O 	O 	0.18053	0.48147	0.89267	0.553
Mof_H 	H 	0.18433	0.46767	0.83997	0.073
Mof_C 	C 	0.26933	0.41347	0.05977	0.017
Mof_H 	H 	0.29183	0.42607	0.00287	-0.007
Mof_C 	C 	0.13985	0.42249	0.51297	-0.081
Mof_H 	H 	0.13053	0.39907	0.45807	-0.051
Mof_C 	C 	0.10643	0.43408	0.55397	-0.036
Mof_H 	H 	0.07423	0.41857	0.52707	0.003
Mof_C 	C 	0.12003	0.46827	0.63437	-0.446
Mof_H 	H 	0.09713	0.47617	0.66247	-0.67
Mof_C 	C 	0.16703	0.49084	0.67377	0.023
Mof_C 	C 	0.20053	0.47933	0.63277	0.074
Mof_H 	H 	0.23263	0.49477	0.65967	-0.045
Mof_C 	C 	0.18693	0.44514	0.55237	-0.288
Mof_O 	O 	0.18073	0.5267	0.74397	0.548
Mof_H 	H 	0.20833	0.53447	0.76757	-0.007
Mof_C 	C 	0.22537	0.43411	0.51137	1.243
Mof_H 	H 	0.25813	0.45607	0.52957	-0.341
Mof_C 	C 	0.21658	0.39587	0.45167	-1.327
Mof_H 	H 	0.18463	0.37367	0.42847	0.739
Mof_C 	C 	0.25695	0.38904	0.42327	1.164
Mof_O 	O 	0.29987	0.42086	0.44157	-0.062
Mof_O 	O 	0.24698	0.35089	0.37637	-1.006
Mof_N 	N 	0.3849	0.40776	0.40947	-0.243
Mof_Zn	Zn	0.30718	0.29077	0.6881	1.275
Mof_O 	O 	0.3026	0.30011	0.5343	-0.497
Mof_O 	O 	0.30014	0.29166	0.3614	-0.463
Mof_C 	C 	0.28016	0.22296	0.4657	-0.275
Mof_H 	H 	0.282	0.2117	0.5342	0.122
Mof_C 	C 	0.2953	0.2742	0.4529	0.427
Mof_C 	C 	0.2438	0.302	0.8437	0.074
Mof_H 	H 	0.2581	0.2896	0.891	0.02
Mof_C 	C 	0.2084	0.3106	0.8812	-0.121
Mof_H 	H 	0.1987	0.3039	0.9532	0.076
Mof_C 	C 	0.1861	0.329	0.8146	0.043
Mof_C 	C 	0.2028	0.3375	0.7113	-0.127
Mof_H 	H 	0.1895	0.3503	0.6622	0.076
Mof_C 	C 	0.2378	0.3278	0.6783	0.076
Mof_H 	H 	0.2478	0.3337	0.6063	0.013
Mof_C 	C 	0.2441	0.1154	0.4785	-0.07
Mof_H 	H 	0.2578	0.1337	0.5411	0.015
Mof_C 	C 	0.2284	0.0661	0.4773	0.197
Mof_C 	C 	0.2082	0.0392	0.3857	-0.149
Mof_H 	H 	0.1974	0.0055	0.3848	0.028
Mof_C 	C 	0.2039	0.0617	0.2953	0.04
Mof_H 	H 	0.1901	0.0433	0.2327	-0.638
Mof_C 	C 	0.2197	0.111	0.2966	-0.064
Mof_H 	H 	0.2167	0.1264	0.2348	0.048
Mof_C 	C 	0.2398	0.1379	0.3882	0.016
Mof_O 	O 	0.232	0.0438	0.5627	0.686
Mof_H 	H 	0.2531	0.0643	0.6036	0.088
Mof_C 	C 	0.2636	0.1909	0.3851	0.003
Mof_H 	H 	0.268	0.2046	0.3164	0.034
Mof_C 	C 	0.2566	0.0561	0.8304	0.053
Mof_H 	H 	0.2842	0.0704	0.7859	0.061
Mof_C 	C 	0.2394	0.0095	0.8697	0.15
Mof_H 	H 	0.2554	0.9921	0.852	-0.022
Mof_C 	C 	0.1988	0.9885	0.9349	-0.17
Mof_H 	H 	0.1871	0.9567	0.9617	0.965
Mof_C 	C 	0.1754	0.014	0.9607	0.526
Mof_C 	C 	0.1925	0.0605	0.9214	-0.293
Mof_H 	H 	0.1764	0.0779	0.9391	0.107
Mof_C 	C 	0.233	0.0815	0.8563	0.094
Mof_O 	O 	0.1356	0.9929	0.0215	-1.159
Mof_H 	H 	0.111	0.9841	0.9836	0.463
Mof_C 	C 	0.25012	0.13272	0.8162	-0.406
Mof_H 	H 	0.2296	0.146	0.8272	-0.066
Mof_C 	C 	0.2923	0.16	0.7665	0.223
Mof_H 	H 	0.3135	0.1477	0.7533	-0.488
Mof_C 	C 	0.3056	0.2087	0.733	0.745
Mof_O 	O 	0.2797	0.227	0.7519	-0.98
Mof_O 	O 	0.3453	0.2321	0.6869	0.089
Mof_C 	C 	0.2162	0.1088	0.3089	-0.064
Mof_H 	H 	0.2107	0.1225	0.2472	-0.002
Mof_C 	C 	0.1992	0.0593	0.3139	0.179
Mof_C 	C 	0.2074	0.0394	0.4041	-0.118
Mof_H 	H 	0.1957	0.0055	0.4076	0.05
Mof_C 	C 	0.2325	0.069	0.4893	0.063
Mof_H 	H 	0.2381	0.0554	0.551	-0.773
Mof_C 	C 	0.2495	0.1185	0.4843	-0.069
Mof_H 	H 	0.2666	0.1387	0.5425	0.054
Mof_C 	C 	0.2413	0.1384	0.3941	0.013
Mof_O 	O 	0.1852	0.0324	0.226	0.553
Mof_H 	H 	0.199	0.05	0.1733	0.073
Mof_C 	C 	0.2532	0.1892	0.3931	0.017
Mof_H 	H 	0.2406	0.1991	0.3362	-0.007
Mof_C 	C 	0.24418	0.0507	0.8463	-0.08
Mof_H 	H 	0.2676	0.0648	0.7914	-0.051
Mof_C 	C 	0.23259	0.00569	0.8873	-0.036
Mof_H 	H 	0.2481	0.989	0.8604	0.003
Mof_C 	C 	0.1984	0.9851	0.9677	-0.448
Mof_H 	H 	0.1905	0.9543	0.9958	-0.673
Mof_C 	C 	0.17583	0.00953	0.0071	0.025
Mof_C 	C 	0.18734	0.05454	0.9661	0.075
Mof_H 	H 	0.1719	0.0712	0.993	-0.045
Mof_C 	C 	0.22153	0.07513	0.8857	-0.287
Mof_O 	O 	0.13997	0.98737	0.0773	0.543
Mof_H 	H 	0.1322	0.0072	0.1009	-0.006
Mof_C 	C 	0.23256	0.1246	0.8447	1.243
Mof_H 	H 	0.2106	0.1354	0.8629	-0.341
Mof_C 	C 	0.2708	0.15405	0.785	-1.327
Mof_H 	H 	0.293	0.1443	0.7618	0.74
Mof_C 	C 	0.27763	0.20125	0.7566	1.164
Mof_O 	O 	0.24581	0.21235	0.7749	-0.062
Mof_O 	O 	0.31578	0.22943	0.7097	-1.006
Mof_N 	N 	0.25891	0.31048	0.7428	-0.243
Mof_Zn	Zn	0.97385	0.6241	0.02143	1.275
Mof_O 	O 	0.96927	0.63344	0.86763	-0.497
Mof_O 	O 	0.96681	0.62499	0.69473	-0.463
Mof_C 	C 	0.94683	0.55629	0.79903	-0.275
Mof_H 	H 	0.94867	0.54503	0.86753	0.122
Mof_C 	C 	0.96197	0.60753	0.78623	0.427
Mof_C 	C 	0.91047	0.63533	0.17703	0.074
Mof_H 	H 	0.92477	0.62293	0.22433	0.02
Mof_C 	C 	0.87507	0.64393	0.21453	-0.121
Mof_H 	H 	0.86537	0.63723	0.28653	0.076
Mof_C 	C 	0.85277	0.66233	0.14793	0.043
Mof_C 	C 	0.86947	0.67083	0.04463	-0.127
Mof_H 	H 	0.85617	0.68363	0.99553	0.077
Mof_C 	C 	0.90447	0.66113	0.01163	0.075
Mof_H 	H 	0.91447	0.66703	0.93963	0.014
Mof_C 	C 	0.91077	0.44873	0.81183	-0.07
Mof_H 	H 	0.92447	0.46703	0.87443	0.015
Mof_C 	C 	0.89507	0.39943	0.81063	0.197
Mof_C 	C 	0.87487	0.37253	0.71903	-0.149
Mof_H 	H 	0.86407	0.33883	0.71813	0.028
Mof_C 	C 	0.87057	0.39503	0.62863	0.04
Mof_H 	H 	0.85677	0.37663	0.56603	-0.638
Mof_C 	C 	0.88637	0.44433	0.62993	-0.064
Mof_H 	H 	0.88337	0.45973	0.56813	0.049
Mof_C 	C 	0.90647	0.47123	0.72153	0.016
Mof_O 	O 	0.89867	0.37713	0.89603	0.686
Mof_H 	H 	0.91977	0.39763	0.93693	0.088
Mof_C 	C 	0.93027	0.52423	0.71843	0.003
Mof_H 	H 	0.93467	0.53793	0.64973	0.034
Mof_C 	C 	0.92327	0.38943	0.16373	0.053
Mof_H 	H 	0.95087	0.40373	0.11923	0.06
Mof_C 	C 	0.90607	0.34283	0.20303	0.149
Mof_H 	H 	0.92207	0.32543	0.18533	-0.021
Mof_C 	C 	0.86547	0.32183	0.26823	-0.169
Mof_H 	H 	0.85377	0.29003	0.29503	0.959
Mof_C 	C 	0.84207	0.34733	0.29403	0.53
Mof_C 	C 	0.85917	0.39383	0.25473	-0.294
Mof_H 	H 	0.84307	0.41123	0.27243	0.107
Mof_C 	C 	0.89967	0.41483	0.18963	0.094
Mof_O 	O 	0.80227	0.32623	0.35483	-1.167
Mof_H 	H 	0.77767	0.31743	0.31693	0.466
Mof_C 	C 	0.91679	0.46605	0.14953	-0.406
Mof_H 	H 	0.89627	0.47933	0.16053	-0.066
Mof_C 	C 	0.95897	0.49333	0.09983	0.222
Mof_H 	H 	0.98017	0.48103	0.08663	-0.489
Mof_C 	C 	0.97227	0.54203	0.06633	0.745
Mof_O 	O 	0.94637	0.56033	0.08523	-0.98
Mof_O 	O 	0.01197	0.56543	0.02023	0.091
Mof_C 	C 	0.88287	0.44213	0.64223	-0.064
Mof_H 	H 	0.87737	0.45583	0.58053	-0.002
Mof_C 	C 	0.86587	0.39263	0.64723	0.179
Mof_C 	C 	0.87407	0.37273	0.73743	-0.118
Mof_H 	H 	0.86237	0.33883	0.74093	0.05
Mof_C 	C 	0.89917	0.40233	0.82263	0.063
Mof_H 	H 	0.90477	0.38873	0.88433	-0.773
Mof_C 	C 	0.91617	0.45183	0.81763	-0.069
Mof_H 	H 	0.93327	0.47203	0.87583	0.054
Mof_C 	C 	0.90797	0.47173	0.72743	0.013
Mof_O 	O 	0.85187	0.36573	0.55933	0.553
Mof_H 	H 	0.86567	0.38333	0.50663	0.073
Mof_C 	C 	0.91987	0.52253	0.72643	0.017
Mof_H 	H 	0.90727	0.53243	0.66953	-0.007
Mof_C 	C 	0.91085	0.38403	0.17963	-0.081
Mof_H 	H 	0.93427	0.39813	0.12473	-0.051
Mof_C 	C 	0.89926	0.33902	0.22063	-0.037
Mof_H 	H 	0.91477	0.32233	0.19373	0.003
Mof_C 	C 	0.86507	0.31843	0.30103	-0.446
Mof_H 	H 	0.85717	0.28763	0.32913	-0.669
Mof_C 	C 	0.8425	0.34286	0.34043	0.022
Mof_C 	C 	0.85401	0.38787	0.29943	0.075
Mof_H 	H 	0.83857	0.40453	0.32633	-0.045
Mof_C 	C 	0.8882	0.40846	0.21903	-0.288
Mof_O 	O 	0.80664	0.3207	0.41063	0.548
Mof_H 	H 	0.79887	0.34053	0.43423	-0.007
Mof_C 	C 	0.89923	0.45793	0.17803	1.244
Mof_H 	H 	0.87727	0.46873	0.19623	-0.341
Mof_C 	C 	0.93747	0.48738	0.11833	-1.329
Mof_H 	H 	0.95967	0.47763	0.09513	0.741
Mof_C 	C 	0.9443	0.53458	0.08993	1.165
Mof_O 	O 	0.91248	0.54568	0.10823	-0.063
Mof_O 	O 	0.98245	0.56276	0.04303	-1.008
Mof_N 	N 	0.92558	0.64381	0.07613	-0.243
Mof_Zn	Zn	0.64051	0.95744	0.35477	1.275
Mof_O 	O 	0.63593	0.96678	0.20097	-0.497
Mof_O 	O 	0.63347	0.95833	0.02807	-0.462
Mof_C 	C 	0.61349	0.88963	0.13237	-0.275
Mof_H 	H 	0.61533	0.87837	0.20087	0.122
Mof_C 	C 	0.62863	0.94087	0.11957	0.427
Mof_C 	C 	0.57713	0.96867	0.51037	0.074
Mof_H 	H 	0.59143	0.95627	0.55767	0.02
Mof_C 	C 	0.54173	0.97727	0.54787	-0.121
Mof_H 	H 	0.53203	0.97057	0.61987	0.076
Mof_C 	C 	0.51943	0.99567	0.48127	0.043
Mof_C 	C 	0.53613	0.00417	0.37797	-0.128
Mof_H 	H 	0.52283	0.01697	0.32887	0.077
Mof_C 	C 	0.57113	0.99447	0.34497	0.077
Mof_H 	H 	0.58113	0.00037	0.27297	0.013
Mof_C 	C 	0.57743	0.78207	0.14517	-0.07
Mof_H 	H 	0.59113	0.80037	0.20777	0.015
Mof_C 	C 	0.56173	0.73277	0.14397	0.197
Mof_C 	C 	0.54153	0.70587	0.05237	-0.149
Mof_H 	H 	0.53073	0.67217	0.05147	0.027
Mof_C 	C 	0.53723	0.72837	0.96197	0.04
Mof_H 	H 	0.52343	0.70997	0.89937	-0.638
Mof_C 	C 	0.55303	0.77767	0.96327	-0.065
Mof_H 	H 	0.55003	0.79307	0.90147	0.049
Mof_C 	C 	0.57313	0.80457	0.05487	0.016
Mof_O 	O 	0.56533	0.71047	0.22937	0.686
Mof_H 	H 	0.58643	0.73097	0.27027	0.088
Mof_C 	C 	0.59693	0.85757	0.05177	0.002
Mof_H 	H 	0.60133	0.87127	0.98307	0.033
Mof_C 	C 	0.58993	0.72277	0.49707	0.053
Mof_H 	H 	0.61753	0.73707	0.45257	0.06
Mof_C 	C 	0.57273	0.67617	0.53637	0.149
Mof_H 	H 	0.58873	0.65877	0.51867	-0.021
Mof_C 	C 	0.53213	0.65517	0.60157	-0.169
Mof_H 	H 	0.52043	0.62337	0.62837	0.96
Mof_C 	C 	0.50873	0.68067	0.62737	0.53
Mof_C 	C 	0.52583	0.72717	0.58807	-0.294
Mof_H 	H 	0.50973	0.74457	0.60577	0.107
Mof_C 	C 	0.56633	0.74817	0.52297	0.094
Mof_O 	O 	0.46893	0.65957	0.68817	-1.168
Mof_H 	H 	0.44433	0.65077	0.65027	0.467
Mof_C 	C 	0.58345	0.79939	0.48287	-0.406
Mof_H 	H 	0.56293	0.81267	0.49387	-0.066
Mof_C 	C 	0.62563	0.82667	0.43317	0.223
Mof_H 	H 	0.64683	0.81437	0.41997	-0.488
Mof_C 	C 	0.63893	0.87537	0.39967	0.744
Mof_O 	O 	0.61303	0.89367	0.41857	-0.979
Mof_O 	O 	0.67863	0.89877	0.35357	0.089
Mof_C 	C 	0.54953	0.77547	0.97557	-0.064
Mof_H 	H 	0.54403	0.78917	0.91387	-0.002
Mof_C 	C 	0.53253	0.72597	0.98057	0.179
Mof_C 	C 	0.54073	0.70607	0.07077	-0.118
Mof_H 	H 	0.52903	0.67217	0.07427	0.05
Mof_C 	C 	0.56583	0.73567	0.15597	0.063
Mof_H 	H 	0.57143	0.72207	0.21767	-0.773
Mof_C 	C 	0.58283	0.78517	0.15097	-0.069
Mof_H 	H 	0.59993	0.80537	0.20917	0.054
Mof_C 	C 	0.57463	0.80507	0.06077	0.013
Mof_O 	O 	0.51853	0.69907	0.89267	0.553
Mof_H 	H 	0.53233	0.71667	0.83997	0.073
Mof_C 	C 	0.58653	0.85587	0.05977	0.018
Mof_H 	H 	0.57393	0.86577	0.00287	-0.007
Mof_C 	C 	0.57751	0.71737	0.51297	-0.081
Mof_H 	H 	0.60093	0.73147	0.45807	-0.051
Mof_C 	C 	0.56592	0.67236	0.55397	-0.036
Mof_H 	H 	0.58143	0.65567	0.52707	0.003
Mof_C 	C 	0.53173	0.65177	0.63437	-0.446
Mof_H 	H 	0.52383	0.62097	0.66247	-0.669
Mof_C 	C 	0.50916	0.6762	0.67377	0.023
Mof_C 	C 	0.52067	0.72121	0.63277	0.074
Mof_H 	H 	0.50523	0.73787	0.65967	-0.045
Mof_C 	C 	0.55486	0.7418	0.55237	-0.288
Mof_O 	O 	0.4733	0.65404	0.74397	0.548
Mof_H 	H 	0.46553	0.67387	0.76757	-0.007
Mof_C 	C 	0.56589	0.79127	0.51137	1.243
Mof_H 	H 	0.54393	0.80207	0.52957	-0.341
Mof_C 	C 	0.60413	0.82072	0.45167	-1.327
Mof_H 	H 	0.62633	0.81097	0.42847	0.739
Mof_C 	C 	0.61096	0.86792	0.42327	1.164
Mof_O 	O 	0.57914	0.87902	0.44157	-0.062
Mof_O 	O 	0.64911	0.8961	0.37637	-1.006
Mof_N 	N 	0.59224	0.97715	0.40947	-0.243
Mof_Zn	Zn	0.29077	0.98359	0.3119	1.275
Mof_O 	O 	0.30011	0.99751	0.4657	-0.497
Mof_O 	O 	0.29166	0.99152	0.6386	-0.463
Mof_C 	C 	0.22296	0.9428	0.5343	-0.275
Mof_H 	H 	0.2117	0.9297	0.4658	0.122
Mof_C 	C 	0.2742	0.9789	0.5471	0.427
Mof_C 	C 	0.302	0.0582	0.1563	0.074
Mof_H 	H 	0.2896	0.0315	0.109	0.02
Mof_C 	C 	0.3106	0.1022	0.1188	-0.121
Mof_H 	H 	0.3039	0.1052	0.0468	0.076
Mof_C 	C 	0.329	0.1429	0.1854	0.043
Mof_C 	C 	0.3375	0.1347	0.2887	-0.127
Mof_H 	H 	0.3503	0.1608	0.3378	0.076
Mof_C 	C 	0.3278	0.09	0.3217	0.076
Mof_H 	H 	0.3337	0.0859	0.3937	0.013
Mof_C 	C 	0.1154	0.8713	0.5215	-0.07
Mof_H 	H 	0.1337	0.8759	0.4589	0.015
Mof_C 	C 	0.0661	0.8377	0.5227	0.197
Mof_C 	C 	0.0392	0.831	0.6143	-0.149
Mof_H 	H 	0.0055	0.8081	0.6152	0.028
Mof_C 	C 	0.0617	0.8578	0.7047	0.04
Mof_H 	H 	0.0433	0.8532	0.7673	-0.638
Mof_C 	C 	0.111	0.8913	0.7034	-0.064
Mof_H 	H 	0.1264	0.9097	0.7652	0.048
Mof_C 	C 	0.1379	0.8981	0.6118	0.016
Mof_O 	O 	0.0438	0.8118	0.4373	0.686
Mof_H 	H 	0.0643	0.8112	0.3964	0.088
Mof_C 	C 	0.1909	0.9273	0.6149	0.003
Mof_H 	H 	0.2046	0.9366	0.6836	0.034
Mof_C 	C 	0.0561	0.7995	0.1696	0.053
Mof_H 	H 	0.0704	0.7862	0.2141	0.061
Mof_C 	C 	0.0095	0.7701	0.1303	0.151
Mof_H 	H 	0.9921	0.7367	0.148	-0.022
Mof_C 	C 	0.9885	0.7897	0.0651	-0.172
Mof_H 	H 	0.9567	0.7696	0.0383	0.969
Mof_C 	C 	0.014	0.8386	0.0393	0.52
Mof_C 	C 	0.0605	0.868	0.0786	-0.293
Mof_H 	H 	0.0779	0.9015	0.0609	0.107
Mof_C 	C 	0.0815	0.8485	0.1437	0.094
Mof_O 	O 	0.9929	0.8573	0.9785	-1.169
Mof_H 	H 	0.9841	0.8731	0.0164	0.467
Mof_C 	C 	0.13272	0.8826	0.1838	-0.406
Mof_H 	H 	0.146	0.9164	0.1728	-0.066
Mof_C 	C 	0.16	0.8677	0.2335	0.223
Mof_H 	H 	0.1477	0.8342	0.2467	-0.488
Mof_C 	C 	0.2087	0.9031	0.267	0.744
Mof_O 	O 	0.227	0.9473	0.2481	-0.979
Mof_O 	O 	0.2321	0.8868	0.3131	0.089
Mof_C 	C 	0.1088	0.8926	0.6911	-0.064
Mof_H 	H 	0.1225	0.9118	0.7528	-0.002
Mof_C 	C 	0.0593	0.8601	0.6861	0.179
Mof_C 	C 	0.0394	0.832	0.5959	-0.118
Mof_H 	H 	0.0055	0.8098	0.5924	0.05
Mof_C 	C 	0.069	0.8365	0.5107	0.063
Mof_H 	H 	0.0554	0.8173	0.449	-0.773
Mof_C 	C 	0.1185	0.869	0.5157	-0.069
Mof_H 	H 	0.1387	0.8721	0.4575	0.054
Mof_C 	C 	0.1384	0.8971	0.6059	0.013
Mof_O 	O 	0.0324	0.8472	0.774	0.553
Mof_H 	H 	0.05	0.851	0.8267	0.073
Mof_C 	C 	0.1892	0.936	0.6069	0.017
Mof_H 	H 	0.1991	0.9585	0.6638	-0.007
Mof_C 	C 	0.0507	0.80652	0.1537	-0.08
Mof_H 	H 	0.0648	0.7972	0.2086	-0.052
Mof_C 	C 	0.00569	0.7731	0.1127	-0.036
Mof_H 	H 	0.989	0.7409	0.1396	0.003
Mof_C 	C 	0.9851	0.7867	0.0323	-0.448
Mof_H 	H 	0.9543	0.7638	0.0042	-0.677
Mof_C 	C 	0.00953	0.8337	0.9929	0.034
Mof_C 	C 	0.05454	0.8672	0.0339	0.077
Mof_H 	H 	0.0712	0.8993	0.007	-0.045
Mof_C 	C 	0.07513	0.8536	0.1143	-0.287
Mof_O 	O 	0.98737	0.8474	0.9227	0.547
Mof_H 	H 	0.0072	0.875	0.8991	-0.007
Mof_C 	C 	0.1246	0.89204	0.1553	1.243
Mof_H 	H 	0.1354	0.9248	0.1371	-0.34
Mof_C 	C 	0.15405	0.88325	0.215	-1.327
Mof_H 	H 	0.1443	0.8513	0.2382	0.739
Mof_C 	C 	0.20125	0.92362	0.2434	1.164
Mof_O 	O 	0.21235	0.96654	0.2251	-0.062
Mof_O 	O 	0.22943	0.91365	0.2903	-1.006
Mof_N 	N 	0.31048	0.05157	0.2572	-0.243
Mof_Zn	Zn	0.95744	0.31692	0.64523	1.275
Mof_O 	O 	0.96678	0.33084	0.79903	-0.497
Mof_O 	O 	0.95833	0.32485	0.97193	-0.462
Mof_C 	C 	0.88963	0.27613	0.86763	-0.275
Mof_H 	H 	0.87837	0.26303	0.79913	0.122
Mof_C 	C 	0.94087	0.31223	0.88043	0.427
Mof_C 	C 	0.96867	0.39153	0.48963	0.074
Mof_H 	H 	0.95627	0.36483	0.44233	0.02
Mof_C 	C 	0.97727	0.43553	0.45213	-0.121
Mof_H 	H 	0.97057	0.43853	0.38013	0.076
Mof_C 	C 	0.99567	0.47623	0.51873	0.043
Mof_C 	C 	0.00417	0.46803	0.62203	-0.128
Mof_H 	H 	0.01697	0.49413	0.67113	0.077
Mof_C 	C 	0.99447	0.42333	0.65503	0.077
Mof_H 	H 	0.00037	0.41923	0.72703	0.012
Mof_C 	C 	0.78207	0.20463	0.85483	-0.07
Mof_H 	H 	0.80037	0.20923	0.79223	0.015
Mof_C 	C 	0.73277	0.17103	0.85603	0.197
Mof_C 	C 	0.70587	0.16433	0.94763	-0.149
Mof_H 	H 	0.67217	0.14143	0.94853	0.027
Mof_C 	C 	0.72837	0.19113	0.03803	0.039
Mof_H 	H 	0.70997	0.18653	0.10063	-0.638
Mof_C 	C 	0.77767	0.22463	0.03673	-0.065
Mof_H 	H 	0.79307	0.24303	0.09853	0.049
Mof_C 	C 	0.80457	0.23143	0.94513	0.017
Mof_O 	O 	0.71047	0.14513	0.77063	0.686
Mof_H 	H 	0.73097	0.14453	0.72973	0.088
Mof_C 	C 	0.85757	0.26063	0.94823	0.002
Mof_H 	H 	0.87127	0.26993	0.01693	0.033
Mof_C 	C 	0.72277	0.13283	0.50293	0.053
Mof_H 	H 	0.73707	0.11953	0.54743	0.06
Mof_C 	C 	0.67617	0.10343	0.46363	0.149
Mof_H 	H 	0.65877	0.07003	0.48133	-0.021
Mof_C 	C 	0.65517	0.12303	0.39843	-0.169
Mof_H 	H 	0.62337	0.10293	0.37163	0.96
Mof_C 	C 	0.68067	0.17193	0.37263	0.53
Mof_C 	C 	0.72717	0.20133	0.41193	-0.294
Mof_H 	H 	0.74457	0.23483	0.39423	0.107
Mof_C 	C 	0.74817	0.18183	0.47703	0.094
Mof_O 	O 	0.65957	0.19063	0.31183	-1.168
Mof_H 	H 	0.65077	0.20643	0.34973	0.467
Mof_C 	C 	0.79939	0.21593	0.51713	-0.406
Mof_H 	H 	0.81267	0.24973	0.50613	-0.066
Mof_C 	C 	0.82667	0.20103	0.56683	0.223
Mof_H 	H 	0.81437	0.16753	0.58003	-0.488
Mof_C 	C 	0.87537	0.23643	0.60033	0.744
Mof_O 	O 	0.89367	0.28063	0.58143	-0.979
Mof_O 	O 	0.89877	0.22013	0.64643	0.089
Mof_C 	C 	0.77547	0.22593	0.02443	-0.064
Mof_H 	H 	0.78917	0.24513	0.08613	-0.002
Mof_C 	C 	0.72597	0.19343	0.01943	0.179
Mof_C 	C 	0.70607	0.16533	0.92923	-0.117
Mof_H 	H 	0.67217	0.14313	0.92573	0.051
Mof_C 	C 	0.73567	0.16983	0.84403	0.063
Mof_H 	H 	0.72207	0.15063	0.78233	-0.773
Mof_C 	C 	0.78517	0.20233	0.84903	-0.069
Mof_H 	H 	0.80537	0.20543	0.79083	0.054
Mof_C 	C 	0.80507	0.23043	0.93923	0.013
Mof_O 	O 	0.69907	0.18053	0.10733	0.553
Mof_H 	H 	0.71667	0.18433	0.16003	0.073
Mof_C 	C 	0.85587	0.26933	0.94023	0.018
Mof_H 	H 	0.86577	0.29183	0.99713	-0.006
Mof_C 	C 	0.71737	0.13985	0.48703	-0.081
Mof_H 	H 	0.73147	0.13053	0.54193	-0.051
Mof_C 	C 	0.67236	0.10643	0.44603	-0.036
Mof_H 	H 	0.65567	0.07423	0.47293	0.003
Mof_C 	C 	0.65177	0.12003	0.36563	-0.446
Mof_H 	H 	0.62097	0.09713	0.33753	-0.67
Mof_C 	C 	0.6762	0.16703	0.32623	0.023
Mof_C 	C 	0.72121	0.20053	0.36723	0.074
Mof_H 	H 	0.73787	0.23263	0.34033	-0.045
Mof_C 	C 	0.7418	0.18693	0.44763	-0.288
Mof_O 	O 	0.65404	0.18073	0.25603	0.548
Mof_H 	H 	0.67387	0.20833	0.23243	-0.007
Mof_C 	C 	0.79127	0.22537	0.48863	1.243
Mof_H 	H 	0.80207	0.25813	0.47043	-0.341
Mof_C 	C 	0.82072	0.21658	0.54833	-1.327
Mof_H 	H 	0.81097	0.18463	0.57153	0.739
Mof_C 	C 	0.86792	0.25695	0.57673	1.164
Mof_O 	O 	0.87902	0.29987	0.55843	-0.062
Mof_O 	O 	0.8961	0.24698	0.62363	-1.006
Mof_N 	N 	0.97715	0.3849	0.59053	-0.243
Mof_Zn	Zn	0.6241	0.65026	0.97857	1.275
Mof_O 	O 	0.63344	0.66418	0.13237	-0.497
Mof_O 	O 	0.62499	0.65819	0.30527	-0.463
Mof_C 	C 	0.55629	0.60947	0.20097	-0.275
Mof_H 	H 	0.54503	0.59637	0.13247	0.122
Mof_C 	C 	0.60753	0.64557	0.21377	0.427
Mof_C 	C 	0.63533	0.72487	0.82297	0.074
Mof_H 	H 	0.62293	0.69817	0.77567	0.02
Mof_C 	C 	0.64393	0.76887	0.78547	-0.121
Mof_H 	H 	0.63723	0.77187	0.71347	0.076
Mof_C 	C 	0.66233	0.80957	0.85207	0.043
Mof_C 	C 	0.67083	0.80137	0.95537	-0.127
Mof_H 	H 	0.68363	0.82747	0.00447	0.077
Mof_C 	C 	0.66113	0.75667	0.98837	0.076
Mof_H 	H 	0.66703	0.75257	0.06037	0.013
Mof_C 	C 	0.44873	0.53797	0.18817	-0.07
Mof_H 	H 	0.46703	0.54257	0.12557	0.015
Mof_C 	C 	0.39943	0.50437	0.18937	0.197
Mof_C 	C 	0.37253	0.49767	0.28097	-0.149
Mof_H 	H 	0.33883	0.47477	0.28187	0.028
Mof_C 	C 	0.39503	0.52447	0.37137	0.04
Mof_H 	H 	0.37663	0.51987	0.43397	-0.638
Mof_C 	C 	0.44433	0.55797	0.37007	-0.064
Mof_H 	H 	0.45973	0.57637	0.43187	0.049
Mof_C 	C 	0.47123	0.56477	0.27847	0.016
Mof_O 	O 	0.37713	0.47847	0.10397	0.686
Mof_H 	H 	0.39763	0.47787	0.06307	0.088
Mof_C 	C 	0.52423	0.59397	0.28157	0.003
Mof_H 	H 	0.53793	0.60327	0.35027	0.034
Mof_C 	C 	0.38943	0.46617	0.83627	0.053
Mof_H 	H 	0.40373	0.45287	0.88077	0.06
Mof_C 	C 	0.34283	0.43677	0.79697	0.149
Mof_H 	H 	0.32543	0.40337	0.81467	-0.021
Mof_C 	C 	0.32183	0.45637	0.73177	-0.169
Mof_H 	H 	0.29003	0.43627	0.70497	0.96
Mof_C 	C 	0.34733	0.50527	0.70597	0.53
Mof_C 	C 	0.39383	0.53467	0.74527	-0.294
Mof_H 	H 	0.41123	0.56817	0.72757	0.107
Mof_C 	C 	0.41483	0.51517	0.81037	0.094
Mof_O 	O 	0.32623	0.52397	0.64517	-1.168
Mof_H 	H 	0.31743	0.53977	0.68307	0.467
Mof_C 	C 	0.46605	0.54927	0.85047	-0.406
Mof_H 	H 	0.47933	0.58307	0.83947	-0.066
Mof_C 	C 	0.49333	0.53437	0.90017	0.223
Mof_H 	H 	0.48103	0.50087	0.91337	-0.488
Mof_C 	C 	0.54203	0.56977	0.93367	0.744
Mof_O 	O 	0.56033	0.61397	0.91477	-0.979
Mof_O 	O 	0.56543	0.55347	0.97977	0.089
Mof_C 	C 	0.44213	0.55927	0.35777	-0.064
Mof_H 	H 	0.45583	0.57847	0.41947	-0.002
Mof_C 	C 	0.39263	0.52677	0.35277	0.179
Mof_C 	C 	0.37273	0.49867	0.26257	-0.118
Mof_H 	H 	0.33883	0.47647	0.25907	0.05
Mof_C 	C 	0.40233	0.50317	0.17737	0.063
Mof_H 	H 	0.38873	0.48397	0.11567	-0.773
Mof_C 	C 	0.45183	0.53567	0.18237	-0.069
Mof_H 	H 	0.47203	0.53877	0.12417	0.054
Mof_C 	C 	0.47173	0.56377	0.27257	0.013
Mof_O 	O 	0.36573	0.51387	0.44067	0.553
Mof_H 	H 	0.38333	0.51767	0.49337	0.073
Mof_C 	C 	0.52253	0.60267	0.27357	0.017
Mof_H 	H 	0.53243	0.62517	0.33047	-0.007
Mof_C 	C 	0.38403	0.47319	0.82037	-0.081
Mof_H 	H 	0.39813	0.46387	0.87527	-0.051
Mof_C 	C 	0.33902	0.43977	0.77937	-0.036
Mof_H 	H 	0.32233	0.40757	0.80627	0.003
Mof_C 	C 	0.31843	0.45337	0.69897	-0.446
Mof_H 	H 	0.28763	0.43047	0.67087	-0.669
Mof_C 	C 	0.34286	0.50037	0.65957	0.023
Mof_C 	C 	0.38787	0.53387	0.70057	0.074
Mof_H 	H 	0.40453	0.56597	0.67367	-0.045
Mof_C 	C 	0.40846	0.52027	0.78097	-0.288
Mof_O 	O 	0.3207	0.51407	0.58937	0.548
Mof_H 	H 	0.34053	0.54167	0.56577	-0.007
Mof_C 	C 	0.45793	0.55871	0.82197	1.243
Mof_H 	H 	0.46873	0.59147	0.80377	-0.341
Mof_C 	C 	0.48738	0.54992	0.88167	-1.327
Mof_H 	H 	0.47763	0.51797	0.90487	0.739
Mof_C 	C 	0.53458	0.59029	0.91007	1.164
Mof_O 	O 	0.54568	0.63321	0.89177	-0.062
Mof_O 	O 	0.56276	0.58032	0.95697	-1.006
Mof_N 	N 	0.64381	0.71824	0.92387	-0.243
Mof_Zn	Zn	0.01641	0.30718	0.3119	1.275
Mof_O 	O 	0.00249	0.3026	0.4657	-0.497
Mof_O 	O 	0.00848	0.30014	0.6386	-0.463
Mof_C 	C 	0.0572	0.28016	0.5343	-0.275
Mof_H 	H 	0.0703	0.282	0.4658	0.122
Mof_C 	C 	0.0211	0.2953	0.5471	0.427
Mof_C 	C 	0.9418	0.2438	0.1563	0.074
Mof_H 	H 	0.9685	0.2581	0.109	0.02
Mof_C 	C 	0.8978	0.2084	0.1188	-0.12
Mof_H 	H 	0.8948	0.1987	0.0468	0.075
Mof_C 	C 	0.8571	0.1861	0.1854	0.042
Mof_C 	C 	0.8653	0.2028	0.2887	-0.126
Mof_H 	H 	0.8392	0.1895	0.3378	0.076
Mof_C 	C 	0.91	0.2378	0.3217	0.075
Mof_H 	H 	0.9141	0.2478	0.3937	0.013
Mof_C 	C 	0.1287	0.2441	0.5215	-0.07
Mof_H 	H 	0.1241	0.2578	0.4589	0.015
Mof_C 	C 	0.1623	0.2284	0.5227	0.197
Mof_C 	C 	0.169	0.2082	0.6143	-0.149
Mof_H 	H 	0.1919	0.1974	0.6152	0.028
Mof_C 	C 	0.1422	0.2039	0.7047	0.04
Mof_H 	H 	0.1468	0.1901	0.7673	-0.638
Mof_C 	C 	0.1087	0.2197	0.7034	-0.064
Mof_H 	H 	0.0903	0.2167	0.7652	0.049
Mof_C 	C 	0.1019	0.2398	0.6118	0.016
Mof_O 	O 	0.1882	0.232	0.4373	0.686
Mof_H 	H 	0.1888	0.2531	0.3964	0.088
Mof_C 	C 	0.0727	0.2636	0.6149	0.003
Mof_H 	H 	0.0634	0.268	0.6836	0.034
Mof_C 	C 	0.2005	0.2566	0.1696	0.053
Mof_H 	H 	0.2138	0.2842	0.2141	0.06
Mof_C 	C 	0.2299	0.2394	0.1303	0.149
Mof_H 	H 	0.2633	0.2554	0.148	-0.021
Mof_C 	C 	0.2103	0.1988	0.0651	-0.169
Mof_H 	H 	0.2304	0.1871	0.0383	0.961
Mof_C 	C 	0.1614	0.1754	0.0393	0.53
Mof_C 	C 	0.132	0.1925	0.0786	-0.294
Mof_H 	H 	0.0985	0.1764	0.0609	0.107
Mof_C 	C 	0.1515	0.233	0.1437	0.094
Mof_O 	O 	0.1427	0.1356	0.9785	-1.168
Mof_H 	H 	0.1269	0.111	0.0164	0.467
Mof_C 	C 	0.1174	0.25012	0.1838	-0.406
Mof_H 	H 	0.0836	0.2296	0.1728	-0.066
Mof_C 	C 	0.1323	0.2923	0.2335	0.223
Mof_H 	H 	0.1658	0.3135	0.2467	-0.488
Mof_C 	C 	0.0969	0.3056	0.267	0.744
Mof_O 	O 	0.0527	0.2797	0.2481	-0.979
Mof_O 	O 	0.1132	0.3453	0.3131	0.089
Mof_C 	C 	0.1074	0.2162	0.6911	-0.064
Mof_H 	H 	0.0882	0.2107	0.7528	-0.002
Mof_C 	C 	0.1399	0.1992	0.6861	0.179
Mof_C 	C 	0.168	0.2074	0.5959	-0.118
Mof_H 	H 	0.1902	0.1957	0.5924	0.05
Mof_C 	C 	0.1635	0.2325	0.5107	0.063
Mof_H 	H 	0.1827	0.2381	0.449	-0.773
Mof_C 	C 	0.131	0.2495	0.5157	-0.069
Mof_H 	H 	0.1279	0.2666	0.4575	0.054
Mof_C 	C 	0.1029	0.2413	0.6059	0.013
Mof_O 	O 	0.1528	0.1852	0.774	0.553
Mof_H 	H 	0.149	0.199	0.8267	0.073
Mof_C 	C 	0.064	0.2532	0.6069	0.017
Mof_H 	H 	0.0415	0.2406	0.6638	-0.007
Mof_C 	C 	0.19348	0.24418	0.1537	-0.081
Mof_H 	H 	0.2028	0.2676	0.2086	-0.051
Mof_C 	C 	0.2269	0.23259	0.1127	-0.036
Mof_H 	H 	0.2591	0.2481	0.1396	0.003
Mof_C 	C 	0.2133	0.1984	0.0323	-0.446
Mof_H 	H 	0.2362	0.1905	0.0042	-0.67
Mof_C 	C 	0.1663	0.17583	0.9929	0.023
Mof_C 	C 	0.1328	0.18734	0.0339	0.074
Mof_H 	H 	0.1007	0.1719	0.007	-0.045
Mof_C 	C 	0.1464	0.22153	0.1143	-0.288
Mof_O 	O 	0.1526	0.13997	0.9227	0.548
Mof_H 	H 	0.125	0.1322	0.8991	-0.007
Mof_C 	C 	0.10796	0.23256	0.1553	1.242
Mof_H 	H 	0.0752	0.2106	0.1371	-0.341
Mof_C 	C 	0.11675	0.2708	0.215	-1.327
Mof_H 	H 	0.1487	0.293	0.2382	0.739
Mof_C 	C 	0.07638	0.27763	0.2434	1.164
Mof_O 	O 	0.03346	0.24581	0.2251	-0.062
Mof_O 	O 	0.08635	0.31578	0.2903	-1.006
Mof_N 	N 	0.94843	0.25891	0.2572	-0.243
Mof_Zn	Zn	0.68308	0.64051	0.64523	1.275
Mof_O 	O 	0.66916	0.63593	0.79903	-0.497
Mof_O 	O 	0.67515	0.63347	0.97193	-0.463
Mof_C 	C 	0.72387	0.61349	0.86763	-0.275
Mof_H 	H 	0.73697	0.61533	0.79913	0.122
Mof_C 	C 	0.68777	0.62863	0.88043	0.427
Mof_C 	C 	0.60847	0.57713	0.48963	0.074
Mof_H 	H 	0.63517	0.59143	0.44233	0.02
Mof_C 	C 	0.56447	0.54173	0.45213	-0.121
Mof_H 	H 	0.56147	0.53203	0.38013	0.076
Mof_C 	C 	0.52377	0.51943	0.51873	0.043
Mof_C 	C 	0.53197	0.53613	0.62203	-0.127
Mof_H 	H 	0.50587	0.52283	0.67113	0.076
Mof_C 	C 	0.57667	0.57113	0.65503	0.076
Mof_H 	H 	0.58077	0.58113	0.72703	0.013
Mof_C 	C 	0.79537	0.57743	0.85483	-0.07
Mof_H 	H 	0.79077	0.59113	0.79223	0.015
Mof_C 	C 	0.82897	0.56173	0.85603	0.197
Mof_C 	C 	0.83567	0.54153	0.94763	-0.149
Mof_H 	H 	0.85857	0.53073	0.94853	0.027
Mof_C 	C 	0.80887	0.53723	0.03803	0.04
Mof_H 	H 	0.81347	0.52343	0.10063	-0.638
Mof_C 	C 	0.77537	0.55303	0.03673	-0.065
Mof_H 	H 	0.75697	0.55003	0.09853	0.049
Mof_C 	C 	0.76857	0.57313	0.94513	0.016
Mof_O 	O 	0.85487	0.56533	0.77063	0.686
Mof_H 	H 	0.85547	0.58643	0.72973	0.088
Mof_C 	C 	0.73937	0.59693	0.94823	0.003
Mof_H 	H 	0.73007	0.60133	0.01693	0.034
Mof_C 	C 	0.86717	0.58993	0.50293	0.053
Mof_H 	H 	0.88047	0.61753	0.54743	0.06
Mof_C 	C 	0.89657	0.57273	0.46363	0.149
Mof_H 	H 	0.92997	0.58873	0.48133	-0.021
Mof_C 	C 	0.87697	0.53213	0.39843	-0.169
Mof_H 	H 	0.89707	0.52043	0.37163	0.96
Mof_C 	C 	0.82807	0.50873	0.37263	0.53
Mof_C 	C 	0.79867	0.52583	0.41193	-0.294
Mof_H 	H 	0.76517	0.50973	0.39423	0.107
Mof_C 	C 	0.81817	0.56633	0.47703	0.094
Mof_O 	O 	0.80937	0.46893	0.31183	-1.168
Mof_H 	H 	0.79357	0.44433	0.34973	0.467
Mof_C 	C 	0.78407	0.58345	0.51713	-0.406
Mof_H 	H 	0.75027	0.56293	0.50613	-0.066
Mof_C 	C 	0.79897	0.62563	0.56683	0.223
Mof_H 	H 	0.83247	0.64683	0.58003	-0.488
Mof_C 	C 	0.76357	0.63893	0.60033	0.744
Mof_O 	O 	0.71937	0.61303	0.58143	-0.979
Mof_O 	O 	0.77987	0.67863	0.64643	0.089
Mof_C 	C 	0.77407	0.54953	0.02443	-0.064
Mof_H 	H 	0.75487	0.54403	0.08613	-0.002
Mof_C 	C 	0.80657	0.53253	0.01943	0.179
Mof_C 	C 	0.83467	0.54073	0.92923	-0.118
Mof_H 	H 	0.85687	0.52903	0.92573	0.051
Mof_C 	C 	0.83017	0.56583	0.84403	0.063
Mof_H 	H 	0.84937	0.57143	0.78233	-0.773
Mof_C 	C 	0.79767	0.58283	0.84903	-0.069
Mof_H 	H 	0.79457	0.59993	0.79083	0.054
Mof_C 	C 	0.76957	0.57463	0.93923	0.013
Mof_O 	O 	0.81947	0.51853	0.10733	0.553
Mof_H 	H 	0.81567	0.53233	0.16003	0.073
Mof_C 	C 	0.73067	0.58653	0.94023	0.017
Mof_H 	H 	0.70817	0.57393	0.99713	-0.007
Mof_C 	C 	0.86015	0.57751	0.48703	-0.081
Mof_H 	H 	0.86947	0.60093	0.54193	-0.051
Mof_C 	C 	0.89357	0.56592	0.44603	-0.036
Mof_H 	H 	0.92577	0.58143	0.47293	0.003
Mof_C 	C 	0.87997	0.53173	0.36563	-0.446
Mof_H 	H 	0.90287	0.52383	0.33753	-0.67
Mof_C 	C 	0.83297	0.50916	0.32623	0.023
Mof_C 	C 	0.79947	0.52067	0.36723	0.074
Mof_H 	H 	0.76737	0.50523	0.34033	-0.045
Mof_C 	C 	0.81307	0.55486	0.44763	-0.288
Mof_O 	O 	0.81927	0.4733	0.25603	0.548
Mof_H 	H 	0.79167	0.46553	0.23243	-0.007
Mof_C 	C 	0.77463	0.56589	0.48863	1.243
Mof_H 	H 	0.74187	0.54393	0.47043	-0.341
Mof_C 	C 	0.78342	0.60413	0.54833	-1.327
Mof_H 	H 	0.81537	0.62633	0.57153	0.739
Mof_C 	C 	0.74305	0.61096	0.57673	1.164
Mof_O 	O 	0.70013	0.57914	0.55843	-0.062
Mof_O 	O 	0.75302	0.64911	0.62363	-1.006
Mof_N 	N 	0.6151	0.59224	0.59053	-0.243
Mof_Zn	Zn	0.34974	0.97385	0.97857	1.275
Mof_O 	O 	0.33582	0.96927	0.13237	-0.497
Mof_O 	O 	0.34181	0.96681	0.30527	-0.463
Mof_C 	C 	0.39053	0.94683	0.20097	-0.275
Mof_H 	H 	0.40363	0.94867	0.13247	0.122
Mof_C 	C 	0.35443	0.96197	0.21377	0.427
Mof_C 	C 	0.27513	0.91047	0.82297	0.074
Mof_H 	H 	0.30183	0.92477	0.77567	0.02
Mof_C 	C 	0.23113	0.87507	0.78547	-0.121
Mof_H 	H 	0.22813	0.86537	0.71347	0.076
Mof_C 	C 	0.19043	0.85277	0.85207	0.044
Mof_C 	C 	0.19863	0.86947	0.95537	-0.128
Mof_H 	H 	0.17253	0.85617	0.00447	0.078
Mof_C 	C 	0.24333	0.90447	0.98837	0.075
Mof_H 	H 	0.24743	0.91447	0.06037	0.014
Mof_C 	C 	0.46203	0.91077	0.18817	-0.07
Mof_H 	H 	0.45743	0.92447	0.12557	0.015
Mof_C 	C 	0.49563	0.89507	0.18937	0.197
Mof_C 	C 	0.50233	0.87487	0.28097	-0.149
Mof_H 	H 	0.52523	0.86407	0.28187	0.028
Mof_C 	C 	0.47553	0.87057	0.37137	0.04
Mof_H 	H 	0.48013	0.85677	0.43397	-0.638
Mof_C 	C 	0.44203	0.88637	0.37007	-0.064
Mof_H 	H 	0.42363	0.88337	0.43187	0.049
Mof_C 	C 	0.43523	0.90647	0.27847	0.016
Mof_O 	O 	0.52153	0.89867	0.10397	0.686
Mof_H 	H 	0.52213	0.91977	0.06307	0.088
Mof_C 	C 	0.40603	0.93027	0.28157	0.003
Mof_H 	H 	0.39673	0.93467	0.35027	0.034
Mof_C 	C 	0.53383	0.92327	0.83627	0.053
Mof_H 	H 	0.54713	0.95087	0.88077	0.06
Mof_C 	C 	0.56323	0.90607	0.79697	0.149
Mof_H 	H 	0.59663	0.92207	0.81467	-0.021
Mof_C 	C 	0.54363	0.86547	0.73177	-0.169
Mof_H 	H 	0.56373	0.85377	0.70497	0.959
Mof_C 	C 	0.49473	0.84207	0.70597	0.53
Mof_C 	C 	0.46533	0.85917	0.74527	-0.294
Mof_H 	H 	0.43183	0.84307	0.72757	0.107
Mof_C 	C 	0.48483	0.89967	0.81037	0.094
Mof_O 	O 	0.47603	0.80227	0.64517	-1.167
Mof_H 	H 	0.46023	0.77767	0.68307	0.466
Mof_C 	C 	0.45073	0.91679	0.85047	-0.406
Mof_H 	H 	0.41693	0.89627	0.83947	-0.066
Mof_C 	C 	0.46563	0.95897	0.90017	0.222
Mof_H 	H 	0.49913	0.98017	0.91337	-0.489
Mof_C 	C 	0.43023	0.97227	0.93367	0.745
Mof_O 	O 	0.38603	0.94637	0.91477	-0.98
Mof_O 	O 	0.44653	0.01197	0.97977	0.091
Mof_C 	C 	0.44073	0.88287	0.35777	-0.064
Mof_H 	H 	0.42153	0.87737	0.41947	-0.002
Mof_C 	C 	0.47323	0.86587	0.35277	0.179
Mof_C 	C 	0.50133	0.87407	0.26257	-0.118
Mof_H 	H 	0.52353	0.86237	0.25907	0.05
Mof_C 	C 	0.49683	0.89917	0.17737	0.063
Mof_H 	H 	0.51603	0.90477	0.11567	-0.773
Mof_C 	C 	0.46433	0.91617	0.18237	-0.069
Mof_H 	H 	0.46123	0.93327	0.12417	0.054
Mof_C 	C 	0.43623	0.90797	0.27257	0.013
Mof_O 	O 	0.48613	0.85187	0.44067	0.553
Mof_H 	H 	0.48233	0.86567	0.49337	0.073
Mof_C 	C 	0.39733	0.91987	0.27357	0.017
Mof_H 	H 	0.37483	0.90727	0.33047	-0.007
Mof_C 	C 	0.52681	0.91085	0.82037	-0.081
Mof_H 	H 	0.53613	0.93427	0.87527	-0.051
Mof_C 	C 	0.56023	0.89926	0.77937	-0.036
Mof_H 	H 	0.59243	0.91477	0.80627	0.003
Mof_C 	C 	0.54663	0.86507	0.69897	-0.446
Mof_H 	H 	0.56953	0.85717	0.67087	-0.669
Mof_C 	C 	0.49963	0.8425	0.65957	0.022
Mof_C 	C 	0.46613	0.85401	0.70057	0.075
Mof_H 	H 	0.43403	0.83857	0.67367	-0.045
Mof_C 	C 	0.47973	0.8882	0.78097	-0.288
Mof_O 	O 	0.48593	0.80664	0.58937	0.548
Mof_H 	H 	0.45833	0.79887	0.56577	-0.007
Mof_C 	C 	0.44129	0.89923	0.82197	1.244
Mof_H 	H 	0.40853	0.87727	0.80377	-0.341
Mof_C 	C 	0.45008	0.93747	0.88167	-1.329
Mof_H 	H 	0.48203	0.95967	0.90487	0.741
Mof_C 	C 	0.40971	0.9443	0.91007	1.165
Mof_O 	O 	0.36679	0.91248	0.89177	-0.063
Mof_O 	O 	0.41968	0.98245	0.95697	-1.008
Mof_N 	N 	0.28176	0.92558	0.92387	-0.243
Mof_Zn	Zn	0.69282	0.70923	0.3119	1.275
Mof_O 	O 	0.6974	0.69989	0.4657	-0.497
Mof_O 	O 	0.69986	0.70834	0.6386	-0.463
Mof_C 	C 	0.71984	0.77704	0.5343	-0.275
Mof_H 	H 	0.718	0.7883	0.4658	0.122
Mof_C 	C 	0.7047	0.7258	0.5471	0.427
Mof_C 	C 	0.7562	0.698	0.1563	0.074
Mof_H 	H 	0.7419	0.7104	0.109	0.02
Mof_C 	C 	0.7916	0.6894	0.1188	-0.121
Mof_H 	H 	0.8013	0.6961	0.0468	0.076
Mof_C 	C 	0.8139	0.671	0.1854	0.043
Mof_C 	C 	0.7972	0.6625	0.2887	-0.127
Mof_H 	H 	0.8105	0.6497	0.3378	0.076
Mof_C 	C 	0.7622	0.6722	0.3217	0.076
Mof_H 	H 	0.7522	0.6663	0.3937	0.013
Mof_C 	C 	0.7559	0.8846	0.5215	-0.07
Mof_H 	H 	0.7422	0.8663	0.4589	0.015
Mof_C 	C 	0.7716	0.9339	0.5227	0.197
Mof_C 	C 	0.7918	0.9608	0.6143	-0.149
Mof_H 	H 	0.8026	0.9945	0.6152	0.028
Mof_C 	C 	0.7961	0.9383	0.7047	0.04
Mof_H 	H 	0.8099	0.9567	0.7673	-0.638
Mof_C 	C 	0.7803	0.889	0.7034	-0.064
Mof_H 	H 	0.7833	0.8736	0.7652	0.048
Mof_C 	C 	0.7602	0.8621	0.6118	0.016
Mof_O 	O 	0.768	0.9562	0.4373	0.686
Mof_H 	H 	0.7469	0.9357	0.3964	0.088
Mof_C 	C 	0.7364	0.8091	0.6149	0.003
Mof_H 	H 	0.732	0.7954	0.6836	0.034
Mof_C 	C 	0.7434	0.9439	0.1696	0.053
Mof_H 	H 	0.7158	0.9296	0.2141	0.061
Mof_C 	C 	0.7606	0.9905	0.1303	0.15
Mof_H 	H 	0.7446	0.0079	0.148	-0.022
Mof_C 	C 	0.8012	0.0115	0.0651	-0.17
Mof_H 	H 	0.8129	0.0433	0.0383	0.965
Mof_C 	C 	0.8246	0.986	0.0393	0.526
Mof_C 	C 	0.8075	0.9395	0.0786	-0.293
Mof_H 	H 	0.8236	0.9221	0.0609	0.107
Mof_C 	C 	0.767	0.9185	0.1437	0.094
Mof_O 	O 	0.8644	0.0071	0.9785	-1.159
Mof_H 	H 	0.889	0.0159	0.0164	0.463
Mof_C 	C 	0.74988	0.86728	0.1838	-0.406
Mof_H 	H 	0.7704	0.854	0.1728	-0.066
Mof_C 	C 	0.7077	0.84	0.2335	0.223
Mof_H 	H 	0.6865	0.8523	0.2467	-0.488
Mof_C 	C 	0.6944	0.7913	0.267	0.745
Mof_O 	O 	0.7203	0.773	0.2481	-0.98
Mof_O 	O 	0.6547	0.7679	0.3131	0.089
Mof_C 	C 	0.7838	0.8912	0.6911	-0.064
Mof_H 	H 	0.7893	0.8775	0.7528	-0.002
Mof_C 	C 	0.8008	0.9407	0.6861	0.179
Mof_C 	C 	0.7926	0.9606	0.5959	-0.118
Mof_H 	H 	0.8043	0.9945	0.5924	0.05
Mof_C 	C 	0.7675	0.931	0.5107	0.063
Mof_H 	H 	0.7619	0.9446	0.449	-0.773
Mof_C 	C 	0.7505	0.8815	0.5157	-0.069
Mof_H 	H 	0.7334	0.8613	0.4575	0.054
Mof_C 	C 	0.7587	0.8616	0.6059	0.013
Mof_O 	O 	0.8148	0.9676	0.774	0.553
Mof_H 	H 	0.801	0.95	0.8267	0.073
Mof_C 	C 	0.7468	0.8108	0.6069	0.017
Mof_H 	H 	0.7594	0.8009	0.6638	-0.007
Mof_C 	C 	0.75582	0.9493	0.1537	-0.08
Mof_H 	H 	0.7324	0.9352	0.2086	-0.051
Mof_C 	C 	0.76741	0.99431	0.1127	-0.036
Mof_H 	H 	0.7519	0.011	0.1396	0.003
Mof_C 	C 	0.8016	0.0149	0.0323	-0.448
Mof_H 	H 	0.8095	0.0457	0.0042	-0.673
Mof_C 	C 	0.82417	0.99047	0.9929	0.025
Mof_C 	C 	0.81266	0.94546	0.0339	0.075
Mof_H 	H 	0.8281	0.9288	0.007	-0.045
Mof_C 	C 	0.77847	0.92487	0.1143	-0.287
Mof_O 	O 	0.86003	0.01263	0.9227	0.543
Mof_H 	H 	0.8678	0.9928	0.8991	-0.006
Mof_C 	C 	0.76744	0.8754	0.1553	1.243
Mof_H 	H 	0.7894	0.8646	0.1371	-0.341
Mof_C 	C 	0.7292	0.84595	0.215	-1.327
Mof_H 	H 	0.707	0.8557	0.2382	0.74
Mof_C 	C 	0.72237	0.79875	0.2434	1.164
Mof_O 	O 	0.75419	0.78765	0.2251	-0.062
Mof_O 	O 	0.68422	0.77057	0.2903	-1.006
Mof_N 	N 	0.74109	0.68952	0.2572	-0.243
Mof_Zn	Zn	0.35949	0.04256	0.64523	1.275
Mof_O 	O 	0.36407	0.03322	0.79903	-0.497
Mof_O 	O 	0.36653	0.04167	0.97193	-0.462
Mof_C 	C 	0.38651	0.11037	0.86763	-0.275
Mof_H 	H 	0.38467	0.12163	0.79913	0.122
Mof_C 	C 	0.37137	0.05913	0.88043	0.427
Mof_C 	C 	0.42287	0.03133	0.48963	0.074
Mof_H 	H 	0.40857	0.04373	0.44233	0.02
Mof_C 	C 	0.45827	0.02273	0.45213	-0.121
Mof_H 	H 	0.46797	0.02943	0.38013	0.076
Mof_C 	C 	0.48057	0.00433	0.51873	0.043
Mof_C 	C 	0.46387	0.99583	0.62203	-0.128
Mof_H 	H 	0.47717	0.98303	0.67113	0.077
Mof_C 	C 	0.42887	0.00553	0.65503	0.077
Mof_H 	H 	0.41887	0.99963	0.72703	0.013
Mof_C 	C 	0.42257	0.21793	0.85483	-0.07
Mof_H 	H 	0.40887	0.19963	0.79223	0.015
Mof_C 	C 	0.43827	0.26723	0.85603	0.197
Mof_C 	C 	0.45847	0.29413	0.94763	-0.149
Mof_H 	H 	0.46927	0.32783	0.94853	0.027
Mof_C 	C 	0.46277	0.27163	0.03803	0.04
Mof_H 	H 	0.47657	0.29003	0.10063	-0.638
Mof_C 	C 	0.44697	0.22233	0.03673	-0.065
Mof_H 	H 	0.44997	0.20693	0.09853	0.049
Mof_C 	C 	0.42687	0.19543	0.94513	0.016
Mof_O 	O 	0.43467	0.28953	0.77063	0.686
Mof_H 	H 	0.41357	0.26903	0.72973	0.088
Mof_C 	C 	0.40307	0.14243	0.94823	0.002
Mof_H 	H 	0.39867	0.12873	0.01693	0.033
Mof_C 	C 	0.41007	0.27723	0.50293	0.053
Mof_H 	H 	0.38247	0.26293	0.54743	0.06
Mof_C 	C 	0.42727	0.32383	0.46363	0.149
Mof_H 	H 	0.41127	0.34123	0.48133	-0.021
Mof_C 	C 	0.46787	0.34483	0.39843	-0.169
Mof_H 	H 	0.47957	0.37663	0.37163	0.96
Mof_C 	C 	0.49127	0.31933	0.37263	0.53
Mof_C 	C 	0.47417	0.27283	0.41193	-0.294
Mof_H 	H 	0.49027	0.25543	0.39423	0.107
Mof_C 	C 	0.43367	0.25183	0.47703	0.094
Mof_O 	O 	0.53107	0.34043	0.31183	-1.168
Mof_H 	H 	0.55567	0.34923	0.34973	0.467
Mof_C 	C 	0.41655	0.20061	0.51713	-0.406
Mof_H 	H 	0.43707	0.18733	0.50613	-0.066
Mof_C 	C 	0.37437	0.17333	0.56683	0.223
Mof_H 	H 	0.35317	0.18563	0.58003	-0.488
Mof_C 	C 	0.36107	0.12463	0.60033	0.744
Mof_O 	O 	0.38697	0.10633	0.58143	-0.979
Mof_O 	O 	0.32137	0.10123	0.64643	0.089
Mof_C 	C 	0.45047	0.22453	0.02443	-0.064
Mof_H 	H 	0.45597	0.21083	0.08613	-0.002
Mof_C 	C 	0.46747	0.27403	0.01943	0.179
Mof_C 	C 	0.45927	0.29393	0.92923	-0.118
Mof_H 	H 	0.47097	0.32783	0.92573	0.05
Mof_C 	C 	0.43417	0.26433	0.84403	0.063
Mof_H 	H 	0.42857	0.27793	0.78233	-0.773
Mof_C 	C 	0.41717	0.21483	0.84903	-0.069
Mof_H 	H 	0.40007	0.19463	0.79083	0.054
Mof_C 	C 	0.42537	0.19493	0.93923	0.013
Mof_O 	O 	0.48147	0.30093	0.10733	0.553
Mof_H 	H 	0.46767	0.28333	0.16003	0.073
Mof_C 	C 	0.41347	0.14413	0.94023	0.018
Mof_H 	H 	0.42607	0.13423	0.99713	-0.007
Mof_C 	C 	0.42249	0.28263	0.48703	-0.081
Mof_H 	H 	0.39907	0.26853	0.54193	-0.051
Mof_C 	C 	0.43408	0.32764	0.44603	-0.036
Mof_H 	H 	0.41857	0.34433	0.47293	0.003
Mof_C 	C 	0.46827	0.34823	0.36563	-0.446
Mof_H 	H 	0.47617	0.37903	0.33753	-0.669
Mof_C 	C 	0.49084	0.3238	0.32623	0.023
Mof_C 	C 	0.47933	0.27879	0.36723	0.074
Mof_H 	H 	0.49477	0.26213	0.34033	-0.045
Mof_C 	C 	0.44514	0.2582	0.44763	-0.288
Mof_O 	O 	0.5267	0.34596	0.25603	0.548
Mof_H 	H 	0.53447	0.32613	0.23243	-0.007
Mof_C 	C 	0.43411	0.20873	0.48863	1.243
Mof_H 	H 	0.45607	0.19793	0.47043	-0.341
Mof_C 	C 	0.39587	0.17928	0.54833	-1.327
Mof_H 	H 	0.37367	0.18903	0.57153	0.739
Mof_C 	C 	0.38904	0.13208	0.57673	1.164
Mof_O 	O 	0.42086	0.12098	0.55843	-0.062
Mof_O 	O 	0.35089	0.1039	0.62363	-1.006
Mof_N 	N 	0.40776	0.02285	0.59053	-0.243
Mof_Zn	Zn	0.02615	0.3759	0.97857	1.275
Mof_O 	O 	0.03073	0.36656	0.13237	-0.497
Mof_O 	O 	0.03319	0.37501	0.30527	-0.463
Mof_C 	C 	0.05317	0.44371	0.20097	-0.275
Mof_H 	H 	0.05133	0.45497	0.13247	0.122
Mof_C 	C 	0.03803	0.39247	0.21377	0.427
Mof_C 	C 	0.08953	0.36467	0.82297	0.074
Mof_H 	H 	0.07523	0.37707	0.77567	0.02
Mof_C 	C 	0.12493	0.35607	0.78547	-0.121
Mof_H 	H 	0.13463	0.36277	0.71347	0.076
Mof_C 	C 	0.14723	0.33767	0.85207	0.043
Mof_C 	C 	0.13053	0.32917	0.95537	-0.127
Mof_H 	H 	0.14383	0.31637	0.00447	0.077
Mof_C 	C 	0.09553	0.33887	0.98837	0.075
Mof_H 	H 	0.08553	0.33297	0.06037	0.014
Mof_C 	C 	0.08923	0.55127	0.18817	-0.07
Mof_H 	H 	0.07553	0.53297	0.12557	0.015
Mof_C 	C 	0.10493	0.60057	0.18937	0.197
Mof_C 	C 	0.12513	0.62747	0.28097	-0.149
Mof_H 	H 	0.13593	0.66117	0.28187	0.028
Mof_C 	C 	0.12943	0.60497	0.37137	0.04
Mof_H 	H 	0.14323	0.62337	0.43397	-0.638
Mof_C 	C 	0.11363	0.55567	0.37007	-0.064
Mof_H 	H 	0.11663	0.54027	0.43187	0.049
Mof_C 	C 	0.09353	0.52877	0.27847	0.016
Mof_O 	O 	0.10133	0.62287	0.10397	0.686
Mof_H 	H 	0.08023	0.60237	0.06307	0.088
Mof_C 	C 	0.06973	0.47577	0.28157	0.003
Mof_H 	H 	0.06533	0.46207	0.35027	0.034
Mof_C 	C 	0.07673	0.61057	0.83627	0.053
Mof_H 	H 	0.04913	0.59627	0.88077	0.06
Mof_C 	C 	0.09393	0.65717	0.79697	0.149
Mof_H 	H 	0.07793	0.67457	0.81467	-0.021
Mof_C 	C 	0.13453	0.67817	0.73177	-0.169
Mof_H 	H 	0.14623	0.70997	0.70497	0.959
Mof_C 	C 	0.15793	0.65267	0.70597	0.53
Mof_C 	C 	0.14083	0.60617	0.74527	-0.294
Mof_H 	H 	0.15693	0.58877	0.72757	0.107
Mof_C 	C 	0.10033	0.58517	0.81037	0.094
Mof_O 	O 	0.19773	0.67377	0.64517	-1.167
Mof_H 	H 	0.22233	0.68257	0.68307	0.466
Mof_C 	C 	0.08321	0.53395	0.85047	-0.406
Mof_H 	H 	0.10373	0.52067	0.83947	-0.066
Mof_C 	C 	0.04103	0.50667	0.90017	0.222
Mof_H 	H 	0.01983	0.51897	0.91337	-0.489
Mof_C 	C 	0.02773	0.45797	0.93367	0.745
Mof_O 	O 	0.05363	0.43967	0.91477	-0.98
Mof_O 	O 	0.98803	0.43457	0.97977	0.091
Mof_C 	C 	0.11713	0.55787	0.35777	-0.064
Mof_H 	H 	0.12263	0.54417	0.41947	-0.002
Mof_C 	C 	0.13413	0.60737	0.35277	0.179
Mof_C 	C 	0.12593	0.62727	0.26257	-0.118
Mof_H 	H 	0.13763	0.66117	0.25907	0.05
Mof_C 	C 	0.10083	0.59767	0.17737	0.063
Mof_H 	H 	0.09523	0.61127	0.11567	-0.773
Mof_C 	C 	0.08383	0.54817	0.18237	-0.069
Mof_H 	H 	0.06673	0.52797	0.12417	0.054
Mof_C 	C 	0.09203	0.52827	0.27257	0.013
Mof_O 	O 	0.14813	0.63427	0.44067	0.553
Mof_H 	H 	0.13433	0.61667	0.49337	0.073
Mof_C 	C 	0.08013	0.47747	0.27357	0.017
Mof_H 	H 	0.09273	0.46757	0.33047	-0.007
Mof_C 	C 	0.08915	0.61597	0.82037	-0.081
Mof_H 	H 	0.06573	0.60187	0.87527	-0.051
Mof_C 	C 	0.10074	0.66098	0.77937	-0.037
Mof_H 	H 	0.08523	0.67767	0.80627	0.003
Mof_C 	C 	0.13493	0.68157	0.69897	-0.446
Mof_H 	H 	0.14283	0.71237	0.67087	-0.669
Mof_C 	C 	0.1575	0.65714	0.65957	0.022
Mof_C 	C 	0.14599	0.61213	0.70057	0.075
Mof_H 	H 	0.16143	0.59547	0.67367	-0.045
Mof_C 	C 	0.1118	0.59154	0.78097	-0.288
Mof_O 	O 	0.19336	0.6793	0.58937	0.548
Mof_H 	H 	0.20113	0.65947	0.56577	-0.007
Mof_C 	C 	0.10077	0.54207	0.82197	1.244
Mof_H 	H 	0.12273	0.53127	0.80377	-0.341
Mof_C 	C 	0.06253	0.51262	0.88167	-1.329
Mof_H 	H 	0.04033	0.52237	0.90487	0.741
Mof_C 	C 	0.0557	0.46542	0.91007	1.165
Mof_O 	O 	0.08752	0.45432	0.89177	-0.063
Mof_O 	O 	0.01755	0.43724	0.95697	-1.008
Mof_N 	N 	0.07442	0.35619	0.92387	-0.243
_end
