data_functionalizedCrystal
_audit_creation_method	'EQeq! by Chris Wilmer'
_symmetry_space_group_name_H-M	'P1'
_symmetry_Int_Tables_number	1
_symmetry_cell_setting	triclinic
loop_
_symmetry_equiv_pos_as_xyz
  x,y,z
_cell_length_a	18.1424
_cell_length_b	18.1424
_cell_length_c	18.1424
_cell_angle_alpha	60
_cell_angle_beta	60
_cell_angle_gamma	60
loop_
_atom_site_label
_atom_site_type_symbol
_atom_site_fract_x
_atom_site_fract_y
_atom_site_fract_z
_atom_site_charge
Mof_Zn	Zn	0.79369	0.79368	0.61895	1.213
Mof_Zn	Zn	0.79369	0.79368	0.79368	1.213
Mof_Zn	Zn	0.61896	0.79368	0.79368	1.213
Mof_Zn	Zn	0.79369	0.61895	0.79368	1.213
Mof_Zn	Zn	0.20631	0.20632	0.38105	1.213
Mof_Zn	Zn	0.20631	0.20632	0.20632	1.213
Mof_Zn	Zn	0.20631	0.38105	0.20632	1.213
Mof_Zn	Zn	0.38104	0.20632	0.20632	1.213
Mof_H 	H 	0.6559	0.9555	0.4331	0.052
Mof_H 	H 	0.9555	0.6559	0.9555	0.052
Mof_H 	H 	0.4331	0.9555	0.6559	0.052
Mof_H 	H 	0.9555	0.4331	0.9555	0.052
Mof_H 	H 	0.6559	0.4331	0.9555	0.052
Mof_H 	H 	0.9555	0.9555	0.4331	0.052
Mof_H 	H 	0.4331	0.6559	0.9555	0.052
Mof_H 	H 	0.9555	0.9555	0.6559	0.052
Mof_H 	H 	0.6559	0.9555	0.9555	0.053
Mof_H 	H 	0.9555	0.4331	0.6559	0.053
Mof_H 	H 	0.4331	0.9555	0.9555	0.053
Mof_H 	H 	0.9555	0.6559	0.4331	0.053
Mof_H 	H 	0.0445	0.3441	0.5669	0.053
Mof_H 	H 	0.3441	0.0445	0.0445	0.053
Mof_H 	H 	0.0445	0.5669	0.3441	0.053
Mof_H 	H 	0.5669	0.0445	0.0445	0.053
Mof_H 	H 	0.5669	0.3441	0.0445	0.053
Mof_H 	H 	0.0445	0.0445	0.5669	0.053
Mof_H 	H 	0.3441	0.5669	0.0445	0.053
Mof_H 	H 	0.0445	0.0445	0.3441	0.053
Mof_H 	H 	0.0445	0.3441	0.0445	0.053
Mof_H 	H 	0.5669	0.0445	0.3441	0.053
Mof_H 	H 	0.0445	0.5669	0.0445	0.053
Mof_H 	H 	0.3441	0.0445	0.5669	0.053
Mof_C 	C 	0.59211	0.97397	0.45995	-0.021
Mof_C 	C 	0.97397	0.59211	0.97397	-0.021
Mof_C 	C 	0.45995	0.97397	0.59211	-0.021
Mof_C 	C 	0.97397	0.45995	0.97397	-0.021
Mof_C 	C 	0.59211	0.45995	0.97397	-0.021
Mof_C 	C 	0.97397	0.97397	0.45995	-0.021
Mof_C 	C 	0.45995	0.59211	0.97397	-0.021
Mof_C 	C 	0.97397	0.97397	0.59211	-0.021
Mof_C 	C 	0.59211	0.97397	0.97397	-0.021
Mof_C 	C 	0.97397	0.45995	0.59211	-0.021
Mof_C 	C 	0.45995	0.97397	0.97397	-0.021
Mof_C 	C 	0.97397	0.59211	0.45995	-0.021
Mof_C 	C 	0.02603	0.40789	0.54005	-0.021
Mof_C 	C 	0.40789	0.02603	0.02603	-0.021
Mof_C 	C 	0.02603	0.54005	0.40789	-0.021
Mof_C 	C 	0.54005	0.02603	0.02603	-0.021
Mof_C 	C 	0.54005	0.40789	0.02603	-0.021
Mof_C 	C 	0.02603	0.02603	0.54005	-0.021
Mof_C 	C 	0.40789	0.54005	0.02603	-0.021
Mof_C 	C 	0.02603	0.02603	0.40789	-0.021
Mof_C 	C 	0.02603	0.40789	0.02603	-0.021
Mof_C 	C 	0.54005	0.02603	0.40789	-0.021
Mof_C 	C 	0.02603	0.54005	0.02603	-0.021
Mof_C 	C 	0.40789	0.02603	0.54005	-0.021
Mof_C 	C 	0.5532	0.9468	0.5532	-0.063
Mof_C 	C 	0.6116	0.8884	0.6116	0.324
Mof_C 	C 	0.9468	0.5532	0.9468	-0.063
Mof_C 	C 	0.8884	0.6116	0.8884	0.324
Mof_C 	C 	0.5532	0.5532	0.9468	-0.063
Mof_C 	C 	0.6116	0.6116	0.8884	0.324
Mof_C 	C 	0.9468	0.9468	0.5532	-0.063
Mof_C 	C 	0.8884	0.8884	0.6116	0.324
Mof_C 	C 	0.5532	0.9468	0.9468	-0.063
Mof_C 	C 	0.6116	0.8884	0.8884	0.324
Mof_C 	C 	0.9468	0.5532	0.5532	-0.063
Mof_C 	C 	0.8884	0.6116	0.6116	0.324
Mof_C 	C 	0.0532	0.4468	0.4468	-0.063
Mof_C 	C 	0.1116	0.3884	0.3884	0.324
Mof_C 	C 	0.4468	0.0532	0.0532	-0.063
Mof_C 	C 	0.3884	0.1116	0.1116	0.324
Mof_C 	C 	0.4468	0.4468	0.0532	-0.063
Mof_C 	C 	0.3884	0.3884	0.1116	0.324
Mof_C 	C 	0.0532	0.0532	0.4468	-0.063
Mof_C 	C 	0.1116	0.1116	0.3884	0.324
Mof_C 	C 	0.0532	0.4468	0.0532	-0.063
Mof_C 	C 	0.1116	0.3884	0.1116	0.324
Mof_C 	C 	0.4468	0.0532	0.4468	-0.063
Mof_C 	C 	0.3884	0.1116	0.3884	0.324
Mof_O 	O 	0.75	0.75	0.75	-0.966
Mof_O 	O 	0.25	0.25	0.25	-0.966
Mof_O 	O 	0.69809	0.86635	0.56921	-0.486
Mof_O 	O 	0.86635	0.69809	0.86635	-0.486
Mof_O 	O 	0.56921	0.86635	0.69809	-0.486
Mof_O 	O 	0.86635	0.56921	0.86635	-0.486
Mof_O 	O 	0.69809	0.56921	0.86635	-0.486
Mof_O 	O 	0.86635	0.86635	0.56921	-0.486
Mof_O 	O 	0.56921	0.69809	0.86635	-0.486
Mof_O 	O 	0.86635	0.86635	0.69809	-0.486
Mof_O 	O 	0.69809	0.86635	0.86635	-0.486
Mof_O 	O 	0.86635	0.56921	0.69809	-0.486
Mof_O 	O 	0.56921	0.86635	0.86635	-0.486
Mof_O 	O 	0.86635	0.69809	0.56921	-0.486
Mof_O 	O 	0.13365	0.30191	0.43079	-0.486
Mof_O 	O 	0.30191	0.13365	0.13365	-0.486
Mof_O 	O 	0.13365	0.43079	0.30191	-0.486
Mof_O 	O 	0.43079	0.13365	0.13365	-0.486
Mof_O 	O 	0.43079	0.30191	0.13365	-0.486
Mof_O 	O 	0.13365	0.13365	0.43079	-0.486
Mof_O 	O 	0.30191	0.43079	0.13365	-0.486
Mof_O 	O 	0.13365	0.13365	0.30191	-0.486
Mof_O 	O 	0.13365	0.30191	0.13365	-0.486
Mof_O 	O 	0.43079	0.13365	0.30191	-0.486
Mof_O 	O 	0.13365	0.43079	0.13365	-0.486
Mof_O 	O 	0.30191	0.13365	0.43079	-0.486
_end
