data_functionalizedCrystal
_audit_creation_method	'EQeq! by Chris Wilmer'
_symmetry_space_group_name_H-M	'P1'
_symmetry_Int_Tables_number	1
_symmetry_cell_setting	triclinic
loop_
_symmetry_equiv_pos_as_xyz
  x,y,z
_cell_length_a	18.975
_cell_length_b	18.975
_cell_length_c	44.763
_cell_angle_alpha	90
_cell_angle_beta	90
_cell_angle_gamma	120
loop_
_atom_site_label
_atom_site_type_symbol
_atom_site_fract_x
_atom_site_fract_y
_atom_site_fract_z
_atom_site_charge
Mof_C 	C 	0.1868	0.2551	0.24578	0.157
Mof_H 	H 	0.228	0.2508	0.2563	-0.011
Mof_C 	C 	0.1946	0.2658	0.21516	-0.277
Mof_H 	H 	0.2413	0.2713	0.2052	0.134
Mof_C 	C 	0.1851	0.2694	0.1479	0.589
Mof_N 	N 	0.2053	0.2078	0.1541	0.557
Mof_H 	H 	0.2241	0.1889	0.1395	-0.11
Mof_H 	H 	0.1998	0.1884	0.1728	-0.042
Mof_H 	H 	0.1985	0.2266	0.1548	-0.668
Mof_C 	C 	0.1963	0.301	0.1182	-0.492
Mof_H 	H 	0.2208	0.2815	0.1041	0.187
Mof_C 	C 	0.1358	0.3968	0.0615	0.109
Mof_H 	H 	0.0859	0.3841	0.0709	0.006
Mof_C 	C 	0.1528	0.432	0.03334	-0.15
Mof_C 	C 	0.096	0.4551	0.01905	0.385
Mof_O 	O 	0.0368	0.4448	0.03442	-0.411
Mof_O 	O 	0.1121	0.4837	0.99305	-0.402
Mof_C 	C 	0.85347	0.58843	0.57911	0.156
Mof_H 	H 	0.89467	0.58413	0.58963	-0.012
Mof_C 	C 	0.86127	0.59913	0.54849	-0.278
Mof_H 	H 	0.90797	0.60463	0.53853	0.133
Mof_C 	C 	0.85177	0.60273	0.48123	0.588
Mof_N 	N 	0.87197	0.54113	0.48743	0.556
Mof_H 	H 	0.89077	0.52223	0.47283	-0.11
Mof_H 	H 	0.86647	0.52173	0.50613	-0.042
Mof_H 	H 	0.86517	0.55993	0.48813	-0.669
Mof_C 	C 	0.86297	0.63433	0.45153	-0.491
Mof_H 	H 	0.88747	0.61483	0.43743	0.187
Mof_C 	C 	0.80247	0.73013	0.39483	0.109
Mof_H 	H 	0.75257	0.71743	0.40423	0.007
Mof_C 	C 	0.81947	0.76533	0.36667	-0.149
Mof_C 	C 	0.76267	0.78843	0.35238	0.385
Mof_O 	O 	0.70347	0.77813	0.36775	-0.411
Mof_O 	O 	0.77877	0.81703	0.32638	-0.402
Mof_C 	C 	0.52013	0.92177	0.91245	0.156
Mof_H 	H 	0.56133	0.91747	0.92297	-0.012
Mof_C 	C 	0.52793	0.93247	0.88183	-0.277
Mof_H 	H 	0.57463	0.93797	0.87187	0.133
Mof_C 	C 	0.51843	0.93607	0.81457	0.587
Mof_N 	N 	0.53863	0.87447	0.82077	0.557
Mof_H 	H 	0.55743	0.85557	0.80617	-0.11
Mof_H 	H 	0.53313	0.85507	0.83947	-0.043
Mof_H 	H 	0.53183	0.89327	0.82147	-0.669
Mof_C 	C 	0.52963	0.96767	0.78487	-0.488
Mof_H 	H 	0.55413	0.94817	0.77077	0.187
Mof_C 	C 	0.46913	0.06347	0.72817	0.108
Mof_H 	H 	0.41923	0.05077	0.73757	0.007
Mof_C 	C 	0.48613	0.09867	0.70001	-0.149
Mof_C 	C 	0.42933	0.12177	0.68572	0.385
Mof_O 	O 	0.37013	0.11147	0.70109	-0.411
Mof_O 	O 	0.44543	0.15037	0.65972	-0.402
Mof_C 	C 	0.7449	0.9317	0.24578	0.156
Mof_H 	H 	0.7492	0.9772	0.2563	-0.013
Mof_C 	C 	0.7342	0.9288	0.21516	-0.278
Mof_H 	H 	0.7287	0.97	0.2052	0.133
Mof_C 	C 	0.7306	0.9157	0.1479	0.59
Mof_N 	N 	0.7922	0.9975	0.1541	0.558
Mof_H 	H 	0.8111	0.0352	0.1395	-0.11
Mof_H 	H 	0.8116	0.0114	0.1728	-0.042
Mof_H 	H 	0.7734	0.9719	0.1548	-0.671
Mof_C 	C 	0.699	0.8953	0.1182	-0.493
Mof_H 	H 	0.7185	0.9393	0.1041	0.188
Mof_C 	C 	0.6032	0.739	0.0615	0.109
Mof_H 	H 	0.6159	0.7018	0.0709	0.006
Mof_C 	C 	0.568	0.7208	0.03334	-0.15
Mof_C 	C 	0.5449	0.6409	0.01905	0.385
Mof_O 	O 	0.5552	0.592	0.03442	-0.411
Mof_O 	O 	0.5163	0.6284	0.99305	-0.402
Mof_C 	C 	0.41157	0.26503	0.57911	0.156
Mof_H 	H 	0.41587	0.31053	0.58963	-0.012
Mof_C 	C 	0.40087	0.26213	0.54849	-0.278
Mof_H 	H 	0.39537	0.30333	0.53853	0.133
Mof_C 	C 	0.39727	0.24903	0.48123	0.588
Mof_N 	N 	0.45887	0.33083	0.48743	0.556
Mof_H 	H 	0.47777	0.36853	0.47283	-0.11
Mof_H 	H 	0.47827	0.34473	0.50613	-0.042
Mof_H 	H 	0.44007	0.30523	0.48813	-0.669
Mof_C 	C 	0.36567	0.22863	0.45153	-0.491
Mof_H 	H 	0.38517	0.27263	0.43743	0.187
Mof_C 	C 	0.26987	0.07233	0.39483	0.108
Mof_H 	H 	0.28257	0.03513	0.40423	0.007
Mof_C 	C 	0.23467	0.05413	0.36667	-0.148
Mof_C 	C 	0.21157	0.97423	0.35238	0.384
Mof_O 	O 	0.22187	0.92533	0.36775	-0.411
Mof_O 	O 	0.18297	0.96173	0.32638	-0.402
Mof_C 	C 	0.07823	0.59837	0.91245	0.156
Mof_H 	H 	0.08253	0.64387	0.92297	-0.012
Mof_C 	C 	0.06753	0.59547	0.88183	-0.277
Mof_H 	H 	0.06203	0.63667	0.87187	0.133
Mof_C 	C 	0.06393	0.58237	0.81457	0.587
Mof_N 	N 	0.12553	0.66417	0.82077	0.557
Mof_H 	H 	0.14443	0.70187	0.80617	-0.11
Mof_H 	H 	0.14493	0.67807	0.83947	-0.043
Mof_H 	H 	0.10673	0.63857	0.82147	-0.669
Mof_C 	C 	0.03233	0.56197	0.78487	-0.488
Mof_H 	H 	0.05183	0.60597	0.77077	0.187
Mof_C 	C 	0.93653	0.40567	0.72817	0.108
Mof_H 	H 	0.94923	0.36847	0.73757	0.007
Mof_C 	C 	0.90133	0.38747	0.70001	-0.149
Mof_C 	C 	0.87823	0.30757	0.68572	0.385
Mof_O 	O 	0.88853	0.25867	0.70109	-0.411
Mof_O 	O 	0.84963	0.29507	0.65972	-0.402
Mof_C 	C 	0.0683	0.8132	0.24578	0.156
Mof_H 	H 	0.0228	0.772	0.2563	-0.013
Mof_C 	C 	0.0712	0.8054	0.21516	-0.278
Mof_H 	H 	0.03	0.7587	0.2052	0.133
Mof_C 	C 	0.0843	0.8149	0.1479	0.59
Mof_N 	N 	0.0025	0.7947	0.1541	0.557
Mof_H 	H 	0.9648	0.7759	0.1395	-0.11
Mof_H 	H 	0.9886	0.8002	0.1728	-0.042
Mof_H 	H 	0.0281	0.8015	0.1548	-0.671
Mof_C 	C 	0.1047	0.8037	0.1182	-0.493
Mof_H 	H 	0.0607	0.7792	0.1041	0.188
Mof_C 	C 	0.261	0.8642	0.0615	0.109
Mof_H 	H 	0.2982	0.9141	0.0709	0.006
Mof_C 	C 	0.2792	0.8472	0.03334	-0.15
Mof_C 	C 	0.3591	0.904	0.01905	0.385
Mof_O 	O 	0.408	0.9632	0.03442	-0.411
Mof_O 	O 	0.3716	0.8879	0.99305	-0.402
Mof_C 	C 	0.73497	0.14653	0.57911	0.156
Mof_H 	H 	0.68947	0.10533	0.58963	-0.012
Mof_C 	C 	0.73787	0.13873	0.54849	-0.278
Mof_H 	H 	0.69667	0.09203	0.53853	0.133
Mof_C 	C 	0.75097	0.14823	0.48123	0.588
Mof_N 	N 	0.66917	0.12803	0.48743	0.556
Mof_H 	H 	0.63147	0.10923	0.47283	-0.11
Mof_H 	H 	0.65527	0.13353	0.50613	-0.042
Mof_H 	H 	0.69477	0.13483	0.48813	-0.669
Mof_C 	C 	0.77137	0.13703	0.45153	-0.491
Mof_H 	H 	0.72737	0.11253	0.43743	0.187
Mof_C 	C 	0.92767	0.19753	0.39483	0.108
Mof_H 	H 	0.96487	0.24743	0.40423	0.007
Mof_C 	C 	0.94587	0.18053	0.36667	-0.147
Mof_C 	C 	0.02577	0.23733	0.35238	0.384
Mof_O 	O 	0.07467	0.29653	0.36775	-0.411
Mof_O 	O 	0.03827	0.22123	0.32638	-0.402
Mof_C 	C 	0.40163	0.47987	0.91245	0.156
Mof_H 	H 	0.35613	0.43867	0.92297	-0.012
Mof_C 	C 	0.40453	0.47207	0.88183	-0.278
Mof_H 	H 	0.36333	0.42537	0.87187	0.133
Mof_C 	C 	0.41763	0.48157	0.81457	0.588
Mof_N 	N 	0.33583	0.46137	0.82077	0.556
Mof_H 	H 	0.29813	0.44257	0.80617	-0.11
Mof_H 	H 	0.32193	0.46687	0.83947	-0.042
Mof_H 	H 	0.36143	0.46817	0.82147	-0.669
Mof_C 	C 	0.43803	0.47037	0.78487	-0.492
Mof_H 	H 	0.39403	0.44587	0.77077	0.187
Mof_C 	C 	0.59433	0.53087	0.72817	0.109
Mof_H 	H 	0.63153	0.58077	0.73757	0.007
Mof_C 	C 	0.61253	0.51387	0.70001	-0.15
Mof_C 	C 	0.69243	0.57067	0.68572	0.385
Mof_O 	O 	0.74133	0.62987	0.70109	-0.411
Mof_O 	O 	0.70493	0.55457	0.65972	-0.402
Mof_C 	C 	0.2551	0.1868	0.75422	0.156
Mof_H 	H 	0.2508	0.228	0.7437	-0.012
Mof_C 	C 	0.2658	0.1946	0.78484	-0.278
Mof_H 	H 	0.2713	0.2413	0.7948	0.133
Mof_C 	C 	0.2694	0.1851	0.8521	0.588
Mof_N 	N 	0.2078	0.2053	0.8459	0.556
Mof_H 	H 	0.1889	0.2241	0.8605	-0.11
Mof_H 	H 	0.1884	0.1998	0.8272	-0.042
Mof_H 	H 	0.2266	0.1985	0.8452	-0.668
Mof_C 	C 	0.301	0.1963	0.8818	-0.492
Mof_H 	H 	0.2815	0.2208	0.8959	0.187
Mof_C 	C 	0.3968	0.1358	0.9385	0.109
Mof_H 	H 	0.3841	0.0859	0.9291	0.006
Mof_C 	C 	0.432	0.1528	0.96666	-0.15
Mof_C 	C 	0.4551	0.096	0.98095	0.385
Mof_O 	O 	0.4448	0.0368	0.96558	-0.411
Mof_O 	O 	0.4837	0.1121	0.00695	-0.402
Mof_C 	C 	0.92177	0.52013	0.08755	0.156
Mof_H 	H 	0.91747	0.56133	0.07703	-0.012
Mof_C 	C 	0.93247	0.52793	0.11817	-0.277
Mof_H 	H 	0.93797	0.57463	0.12813	0.133
Mof_C 	C 	0.93607	0.51843	0.18543	0.587
Mof_N 	N 	0.87447	0.53863	0.17923	0.557
Mof_H 	H 	0.85557	0.55743	0.19383	-0.11
Mof_H 	H 	0.85507	0.53313	0.16053	-0.043
Mof_H 	H 	0.89327	0.53183	0.17853	-0.669
Mof_C 	C 	0.96767	0.52963	0.21513	-0.488
Mof_H 	H 	0.94817	0.55413	0.22923	0.187
Mof_C 	C 	0.06347	0.46913	0.27183	0.108
Mof_H 	H 	0.05077	0.41923	0.26243	0.007
Mof_C 	C 	0.09867	0.48613	0.29999	-0.149
Mof_C 	C 	0.12177	0.42933	0.31428	0.385
Mof_O 	O 	0.11147	0.37013	0.29891	-0.411
Mof_O 	O 	0.15037	0.44543	0.34028	-0.402
Mof_C 	C 	0.58843	0.85347	0.42089	0.156
Mof_H 	H 	0.58413	0.89467	0.41037	-0.012
Mof_C 	C 	0.59913	0.86127	0.45151	-0.278
Mof_H 	H 	0.60463	0.90797	0.46147	0.133
Mof_C 	C 	0.60273	0.85177	0.51877	0.588
Mof_N 	N 	0.54113	0.87197	0.51257	0.556
Mof_H 	H 	0.52223	0.89077	0.52717	-0.11
Mof_H 	H 	0.52173	0.86647	0.49387	-0.042
Mof_H 	H 	0.55993	0.86517	0.51187	-0.669
Mof_C 	C 	0.63433	0.86297	0.54847	-0.491
Mof_H 	H 	0.61483	0.88747	0.56257	0.187
Mof_C 	C 	0.73013	0.80247	0.60517	0.109
Mof_H 	H 	0.71743	0.75257	0.59577	0.007
Mof_C 	C 	0.76533	0.81947	0.63333	-0.149
Mof_C 	C 	0.78843	0.76267	0.64762	0.385
Mof_O 	O 	0.77813	0.70347	0.63225	-0.411
Mof_O 	O 	0.81703	0.77877	0.67362	-0.402
Mof_C 	C 	0.9317	0.7449	0.75422	0.156
Mof_H 	H 	0.9772	0.7492	0.7437	-0.013
Mof_C 	C 	0.9288	0.7342	0.78484	-0.278
Mof_H 	H 	0.97	0.7287	0.7948	0.133
Mof_C 	C 	0.9157	0.7306	0.8521	0.59
Mof_N 	N 	0.9975	0.7922	0.8459	0.558
Mof_H 	H 	0.0352	0.8111	0.8605	-0.11
Mof_H 	H 	0.0114	0.8116	0.8272	-0.042
Mof_H 	H 	0.9719	0.7734	0.8452	-0.671
Mof_C 	C 	0.8953	0.699	0.8818	-0.493
Mof_H 	H 	0.9393	0.7185	0.8959	0.188
Mof_C 	C 	0.739	0.6032	0.9385	0.109
Mof_H 	H 	0.7018	0.6159	0.9291	0.006
Mof_C 	C 	0.7208	0.568	0.96666	-0.15
Mof_C 	C 	0.6409	0.5449	0.98095	0.385
Mof_O 	O 	0.592	0.5552	0.96558	-0.411
Mof_O 	O 	0.6284	0.5163	0.00695	-0.402
Mof_C 	C 	0.59837	0.07823	0.08755	0.156
Mof_H 	H 	0.64387	0.08253	0.07703	-0.012
Mof_C 	C 	0.59547	0.06753	0.11817	-0.277
Mof_H 	H 	0.63667	0.06203	0.12813	0.133
Mof_C 	C 	0.58237	0.06393	0.18543	0.587
Mof_N 	N 	0.66417	0.12553	0.17923	0.557
Mof_H 	H 	0.70187	0.14443	0.19383	-0.11
Mof_H 	H 	0.67807	0.14493	0.16053	-0.043
Mof_H 	H 	0.63857	0.10673	0.17853	-0.669
Mof_C 	C 	0.56197	0.03233	0.21513	-0.488
Mof_H 	H 	0.60597	0.05183	0.22923	0.187
Mof_C 	C 	0.40567	0.93653	0.27183	0.108
Mof_H 	H 	0.36847	0.94923	0.26243	0.007
Mof_C 	C 	0.38747	0.90133	0.29999	-0.149
Mof_C 	C 	0.30757	0.87823	0.31428	0.385
Mof_O 	O 	0.25867	0.88853	0.29891	-0.411
Mof_O 	O 	0.29507	0.84963	0.34028	-0.402
Mof_C 	C 	0.26503	0.41157	0.42089	0.156
Mof_H 	H 	0.31053	0.41587	0.41037	-0.012
Mof_C 	C 	0.26213	0.40087	0.45151	-0.278
Mof_H 	H 	0.30333	0.39537	0.46147	0.133
Mof_C 	C 	0.24903	0.39727	0.51877	0.588
Mof_N 	N 	0.33083	0.45887	0.51257	0.556
Mof_H 	H 	0.36853	0.47777	0.52717	-0.11
Mof_H 	H 	0.34473	0.47827	0.49387	-0.042
Mof_H 	H 	0.30523	0.44007	0.51187	-0.669
Mof_C 	C 	0.22863	0.36567	0.54847	-0.491
Mof_H 	H 	0.27263	0.38517	0.56257	0.187
Mof_C 	C 	0.07233	0.26987	0.60517	0.108
Mof_H 	H 	0.03513	0.28257	0.59577	0.007
Mof_C 	C 	0.05413	0.23467	0.63333	-0.148
Mof_C 	C 	0.97423	0.21157	0.64762	0.384
Mof_O 	O 	0.92533	0.22187	0.63225	-0.411
Mof_O 	O 	0.96173	0.18297	0.67362	-0.402
Mof_C 	C 	0.8132	0.0683	0.75422	0.156
Mof_H 	H 	0.772	0.0228	0.7437	-0.013
Mof_C 	C 	0.8054	0.0712	0.78484	-0.278
Mof_H 	H 	0.7587	0.03	0.7948	0.133
Mof_C 	C 	0.8149	0.0843	0.8521	0.59
Mof_N 	N 	0.7947	0.0025	0.8459	0.557
Mof_H 	H 	0.7759	0.9648	0.8605	-0.11
Mof_H 	H 	0.8002	0.9886	0.8272	-0.042
Mof_H 	H 	0.8015	0.0281	0.8452	-0.671
Mof_C 	C 	0.8037	0.1047	0.8818	-0.493
Mof_H 	H 	0.7792	0.0607	0.8959	0.188
Mof_C 	C 	0.8642	0.261	0.9385	0.109
Mof_H 	H 	0.9141	0.2982	0.9291	0.006
Mof_C 	C 	0.8472	0.2792	0.96666	-0.15
Mof_C 	C 	0.904	0.3591	0.98095	0.385
Mof_O 	O 	0.9632	0.408	0.96558	-0.411
Mof_O 	O 	0.8879	0.3716	0.00695	-0.402
Mof_C 	C 	0.47987	0.40163	0.08755	0.156
Mof_H 	H 	0.43867	0.35613	0.07703	-0.012
Mof_C 	C 	0.47207	0.40453	0.11817	-0.278
Mof_H 	H 	0.42537	0.36333	0.12813	0.133
Mof_C 	C 	0.48157	0.41763	0.18543	0.588
Mof_N 	N 	0.46137	0.33583	0.17923	0.556
Mof_H 	H 	0.44257	0.29813	0.19383	-0.11
Mof_H 	H 	0.46687	0.32193	0.16053	-0.042
Mof_H 	H 	0.46817	0.36143	0.17853	-0.669
Mof_C 	C 	0.47037	0.43803	0.21513	-0.492
Mof_H 	H 	0.44587	0.39403	0.22923	0.187
Mof_C 	C 	0.53087	0.59433	0.27183	0.109
Mof_H 	H 	0.58077	0.63153	0.26243	0.007
Mof_C 	C 	0.51387	0.61253	0.29999	-0.15
Mof_C 	C 	0.57067	0.69243	0.31428	0.385
Mof_O 	O 	0.62987	0.74133	0.29891	-0.411
Mof_O 	O 	0.55457	0.70493	0.34028	-0.402
Mof_C 	C 	0.14653	0.73497	0.42089	0.156
Mof_H 	H 	0.10533	0.68947	0.41037	-0.012
Mof_C 	C 	0.13873	0.73787	0.45151	-0.278
Mof_H 	H 	0.09203	0.69667	0.46147	0.133
Mof_C 	C 	0.14823	0.75097	0.51877	0.588
Mof_N 	N 	0.12803	0.66917	0.51257	0.556
Mof_H 	H 	0.10923	0.63147	0.52717	-0.11
Mof_H 	H 	0.13353	0.65527	0.49387	-0.042
Mof_H 	H 	0.13483	0.69477	0.51187	-0.669
Mof_C 	C 	0.13703	0.77137	0.54847	-0.491
Mof_H 	H 	0.11253	0.72737	0.56257	0.187
Mof_C 	C 	0.19753	0.92767	0.60517	0.108
Mof_H 	H 	0.24743	0.96487	0.59577	0.007
Mof_C 	C 	0.18053	0.94587	0.63333	-0.147
Mof_C 	C 	0.23733	0.02577	0.64762	0.384
Mof_O 	O 	0.29653	0.07467	0.63225	-0.411
Mof_O 	O 	0.22123	0.03827	0.67362	-0.402
Mof_C 	C 	0.8132	0.7449	0.75422	0.156
Mof_H 	H 	0.772	0.7492	0.7437	-0.012
Mof_C 	C 	0.8054	0.7342	0.78484	-0.278
Mof_H 	H 	0.7587	0.7287	0.7948	0.133
Mof_C 	C 	0.8149	0.7306	0.8521	0.588
Mof_N 	N 	0.7947	0.7922	0.8459	0.556
Mof_H 	H 	0.7759	0.8111	0.8605	-0.11
Mof_H 	H 	0.8002	0.8116	0.8272	-0.042
Mof_H 	H 	0.8015	0.7734	0.8452	-0.668
Mof_C 	C 	0.8037	0.699	0.8818	-0.492
Mof_H 	H 	0.7792	0.7185	0.8959	0.187
Mof_C 	C 	0.8642	0.6032	0.9385	0.109
Mof_H 	H 	0.9141	0.6159	0.9291	0.006
Mof_C 	C 	0.8472	0.568	0.96666	-0.15
Mof_C 	C 	0.904	0.5449	0.98095	0.385
Mof_O 	O 	0.9632	0.5552	0.96558	-0.411
Mof_O 	O 	0.8879	0.5163	0.00695	-0.402
Mof_C 	C 	0.47987	0.07823	0.08755	0.156
Mof_H 	H 	0.43867	0.08253	0.07703	-0.012
Mof_C 	C 	0.47207	0.06753	0.11817	-0.277
Mof_H 	H 	0.42537	0.06203	0.12813	0.133
Mof_C 	C 	0.48157	0.06393	0.18543	0.587
Mof_N 	N 	0.46137	0.12553	0.17923	0.557
Mof_H 	H 	0.44257	0.14443	0.19383	-0.11
Mof_H 	H 	0.46687	0.14493	0.16053	-0.043
Mof_H 	H 	0.46817	0.10673	0.17853	-0.669
Mof_C 	C 	0.47037	0.03233	0.21513	-0.488
Mof_H 	H 	0.44587	0.05183	0.22923	0.187
Mof_C 	C 	0.53087	0.93653	0.27183	0.108
Mof_H 	H 	0.58077	0.94923	0.26243	0.007
Mof_C 	C 	0.51387	0.90133	0.29999	-0.149
Mof_C 	C 	0.57067	0.87823	0.31428	0.385
Mof_O 	O 	0.62987	0.88853	0.29891	-0.411
Mof_O 	O 	0.55457	0.84963	0.34028	-0.402
Mof_C 	C 	0.14653	0.41157	0.42089	0.156
Mof_H 	H 	0.10533	0.41587	0.41037	-0.012
Mof_C 	C 	0.13873	0.40087	0.45151	-0.278
Mof_H 	H 	0.09203	0.39537	0.46147	0.133
Mof_C 	C 	0.14823	0.39727	0.51877	0.588
Mof_N 	N 	0.12803	0.45887	0.51257	0.556
Mof_H 	H 	0.10923	0.47777	0.52717	-0.11
Mof_H 	H 	0.13353	0.47827	0.49387	-0.042
Mof_H 	H 	0.13483	0.44007	0.51187	-0.669
Mof_C 	C 	0.13703	0.36567	0.54847	-0.491
Mof_H 	H 	0.11253	0.38517	0.56257	0.187
Mof_C 	C 	0.19753	0.26987	0.60517	0.109
Mof_H 	H 	0.24743	0.28257	0.59577	0.007
Mof_C 	C 	0.18053	0.23467	0.63333	-0.149
Mof_C 	C 	0.23733	0.21157	0.64762	0.385
Mof_O 	O 	0.29653	0.22187	0.63225	-0.411
Mof_O 	O 	0.22123	0.18297	0.67362	-0.402
Mof_C 	C 	0.2551	0.0683	0.75422	0.156
Mof_H 	H 	0.2508	0.0228	0.7437	-0.013
Mof_C 	C 	0.2658	0.0712	0.78484	-0.278
Mof_H 	H 	0.2713	0.03	0.7948	0.133
Mof_C 	C 	0.2694	0.0843	0.8521	0.59
Mof_N 	N 	0.2078	0.0025	0.8459	0.558
Mof_H 	H 	0.1889	0.9648	0.8605	-0.11
Mof_H 	H 	0.1884	0.9886	0.8272	-0.042
Mof_H 	H 	0.2266	0.0281	0.8452	-0.671
Mof_C 	C 	0.301	0.1047	0.8818	-0.493
Mof_H 	H 	0.2815	0.0607	0.8959	0.188
Mof_C 	C 	0.3968	0.261	0.9385	0.109
Mof_H 	H 	0.3841	0.2982	0.9291	0.006
Mof_C 	C 	0.432	0.2792	0.96666	-0.15
Mof_C 	C 	0.4551	0.3591	0.98095	0.385
Mof_O 	O 	0.4448	0.408	0.96558	-0.411
Mof_O 	O 	0.4837	0.3716	0.00695	-0.402
Mof_C 	C 	0.92177	0.40163	0.08755	0.156
Mof_H 	H 	0.91747	0.35613	0.07703	-0.012
Mof_C 	C 	0.93247	0.40453	0.11817	-0.277
Mof_H 	H 	0.93797	0.36333	0.12813	0.133
Mof_C 	C 	0.93607	0.41763	0.18543	0.587
Mof_N 	N 	0.87447	0.33583	0.17923	0.557
Mof_H 	H 	0.85557	0.29813	0.19383	-0.11
Mof_H 	H 	0.85507	0.32193	0.16053	-0.043
Mof_H 	H 	0.89327	0.36143	0.17853	-0.669
Mof_C 	C 	0.96767	0.43803	0.21513	-0.488
Mof_H 	H 	0.94817	0.39403	0.22923	0.187
Mof_C 	C 	0.06347	0.59433	0.27183	0.108
Mof_H 	H 	0.05077	0.63153	0.26243	0.007
Mof_C 	C 	0.09867	0.61253	0.29999	-0.149
Mof_C 	C 	0.12177	0.69243	0.31428	0.385
Mof_O 	O 	0.11147	0.74133	0.29891	-0.411
Mof_O 	O 	0.15037	0.70493	0.34028	-0.402
Mof_C 	C 	0.58843	0.73497	0.42089	0.156
Mof_H 	H 	0.58413	0.68947	0.41037	-0.012
Mof_C 	C 	0.59913	0.73787	0.45151	-0.278
Mof_H 	H 	0.60463	0.69667	0.46147	0.133
Mof_C 	C 	0.60273	0.75097	0.51877	0.588
Mof_N 	N 	0.54113	0.66917	0.51257	0.556
Mof_H 	H 	0.52223	0.63147	0.52717	-0.11
Mof_H 	H 	0.52173	0.65527	0.49387	-0.042
Mof_H 	H 	0.55993	0.69477	0.51187	-0.669
Mof_C 	C 	0.63433	0.77137	0.54847	-0.491
Mof_H 	H 	0.61483	0.72737	0.56257	0.187
Mof_C 	C 	0.73013	0.92767	0.60517	0.108
Mof_H 	H 	0.71743	0.96487	0.59577	0.007
Mof_C 	C 	0.76533	0.94587	0.63333	-0.148
Mof_C 	C 	0.78843	0.02577	0.64762	0.384
Mof_O 	O 	0.77813	0.07467	0.63225	-0.411
Mof_O 	O 	0.81703	0.03827	0.67362	-0.402
Mof_C 	C 	0.9317	0.1868	0.75422	0.156
Mof_H 	H 	0.9772	0.228	0.7437	-0.013
Mof_C 	C 	0.9288	0.1946	0.78484	-0.278
Mof_H 	H 	0.97	0.2413	0.7948	0.133
Mof_C 	C 	0.9157	0.1851	0.8521	0.59
Mof_N 	N 	0.9975	0.2053	0.8459	0.557
Mof_H 	H 	0.0352	0.2241	0.8605	-0.11
Mof_H 	H 	0.0114	0.1998	0.8272	-0.042
Mof_H 	H 	0.9719	0.1985	0.8452	-0.671
Mof_C 	C 	0.8953	0.1963	0.8818	-0.493
Mof_H 	H 	0.9393	0.2208	0.8959	0.188
Mof_C 	C 	0.739	0.1358	0.9385	0.109
Mof_H 	H 	0.7018	0.0859	0.9291	0.006
Mof_C 	C 	0.7208	0.1528	0.96666	-0.15
Mof_C 	C 	0.6409	0.096	0.98095	0.385
Mof_O 	O 	0.592	0.0368	0.96558	-0.411
Mof_O 	O 	0.6284	0.1121	0.00695	-0.402
Mof_C 	C 	0.59837	0.52013	0.08755	0.156
Mof_H 	H 	0.64387	0.56133	0.07703	-0.012
Mof_C 	C 	0.59547	0.52793	0.11817	-0.278
Mof_H 	H 	0.63667	0.57463	0.12813	0.133
Mof_C 	C 	0.58237	0.51843	0.18543	0.588
Mof_N 	N 	0.66417	0.53863	0.17923	0.556
Mof_H 	H 	0.70187	0.55743	0.19383	-0.11
Mof_H 	H 	0.67807	0.53313	0.16053	-0.042
Mof_H 	H 	0.63857	0.53183	0.17853	-0.669
Mof_C 	C 	0.56197	0.52963	0.21513	-0.492
Mof_H 	H 	0.60597	0.55413	0.22923	0.187
Mof_C 	C 	0.40567	0.46913	0.27183	0.109
Mof_H 	H 	0.36847	0.41923	0.26243	0.007
Mof_C 	C 	0.38747	0.48613	0.29999	-0.15
Mof_C 	C 	0.30757	0.42933	0.31428	0.385
Mof_O 	O 	0.25867	0.37013	0.29891	-0.411
Mof_O 	O 	0.29507	0.44543	0.34028	-0.402
Mof_C 	C 	0.26503	0.85347	0.42089	0.156
Mof_H 	H 	0.31053	0.89467	0.41037	-0.012
Mof_C 	C 	0.26213	0.86127	0.45151	-0.278
Mof_H 	H 	0.30333	0.90797	0.46147	0.133
Mof_C 	C 	0.24903	0.85177	0.51877	0.588
Mof_N 	N 	0.33083	0.87197	0.51257	0.556
Mof_H 	H 	0.36853	0.89077	0.52717	-0.11
Mof_H 	H 	0.34473	0.86647	0.49387	-0.042
Mof_H 	H 	0.30523	0.86517	0.51187	-0.669
Mof_C 	C 	0.22863	0.86297	0.54847	-0.491
Mof_H 	H 	0.27263	0.88747	0.56257	0.187
Mof_C 	C 	0.07233	0.80247	0.60517	0.108
Mof_H 	H 	0.03513	0.75257	0.59577	0.007
Mof_C 	C 	0.05413	0.81947	0.63333	-0.147
Mof_C 	C 	0.97423	0.76267	0.64762	0.384
Mof_O 	O 	0.92533	0.70347	0.63225	-0.411
Mof_O 	O 	0.96173	0.77877	0.67362	-0.402
Mof_C 	C 	0.7449	0.8132	0.24578	0.156
Mof_H 	H 	0.7492	0.772	0.2563	-0.012
Mof_C 	C 	0.7342	0.8054	0.21516	-0.278
Mof_H 	H 	0.7287	0.7587	0.2052	0.133
Mof_C 	C 	0.7306	0.8149	0.1479	0.588
Mof_N 	N 	0.7922	0.7947	0.1541	0.556
Mof_H 	H 	0.8111	0.7759	0.1395	-0.11
Mof_H 	H 	0.8116	0.8002	0.1728	-0.042
Mof_H 	H 	0.7734	0.8015	0.1548	-0.668
Mof_C 	C 	0.699	0.8037	0.1182	-0.492
Mof_H 	H 	0.7185	0.7792	0.1041	0.187
Mof_C 	C 	0.6032	0.8642	0.0615	0.109
Mof_H 	H 	0.6159	0.9141	0.0709	0.006
Mof_C 	C 	0.568	0.8472	0.03334	-0.15
Mof_C 	C 	0.5449	0.904	0.01905	0.385
Mof_O 	O 	0.5552	0.9632	0.03442	-0.411
Mof_O 	O 	0.5163	0.8879	0.99305	-0.402
Mof_C 	C 	0.41157	0.14653	0.57911	0.156
Mof_H 	H 	0.41587	0.10533	0.58963	-0.012
Mof_C 	C 	0.40087	0.13873	0.54849	-0.278
Mof_H 	H 	0.39537	0.09203	0.53853	0.133
Mof_C 	C 	0.39727	0.14823	0.48123	0.588
Mof_N 	N 	0.45887	0.12803	0.48743	0.556
Mof_H 	H 	0.47777	0.10923	0.47283	-0.11
Mof_H 	H 	0.47827	0.13353	0.50613	-0.042
Mof_H 	H 	0.44007	0.13483	0.48813	-0.669
Mof_C 	C 	0.36567	0.13703	0.45153	-0.491
Mof_H 	H 	0.38517	0.11253	0.43743	0.187
Mof_C 	C 	0.26987	0.19753	0.39483	0.109
Mof_H 	H 	0.28257	0.24743	0.40423	0.007
Mof_C 	C 	0.23467	0.18053	0.36667	-0.149
Mof_C 	C 	0.21157	0.23733	0.35238	0.385
Mof_O 	O 	0.22187	0.29653	0.36775	-0.411
Mof_O 	O 	0.18297	0.22123	0.32638	-0.402
Mof_C 	C 	0.07823	0.47987	0.91245	0.156
Mof_H 	H 	0.08253	0.43867	0.92297	-0.012
Mof_C 	C 	0.06753	0.47207	0.88183	-0.277
Mof_H 	H 	0.06203	0.42537	0.87187	0.133
Mof_C 	C 	0.06393	0.48157	0.81457	0.587
Mof_N 	N 	0.12553	0.46137	0.82077	0.557
Mof_H 	H 	0.14443	0.44257	0.80617	-0.11
Mof_H 	H 	0.14493	0.46687	0.83947	-0.043
Mof_H 	H 	0.10673	0.46817	0.82147	-0.669
Mof_C 	C 	0.03233	0.47037	0.78487	-0.488
Mof_H 	H 	0.05183	0.44587	0.77077	0.187
Mof_C 	C 	0.93653	0.53087	0.72817	0.108
Mof_H 	H 	0.94923	0.58077	0.73757	0.007
Mof_C 	C 	0.90133	0.51387	0.70001	-0.149
Mof_C 	C 	0.87823	0.57067	0.68572	0.385
Mof_O 	O 	0.88853	0.62987	0.70109	-0.411
Mof_O 	O 	0.84963	0.55457	0.65972	-0.402
Mof_C 	C 	0.0683	0.2551	0.24578	0.156
Mof_H 	H 	0.0228	0.2508	0.2563	-0.013
Mof_C 	C 	0.0712	0.2658	0.21516	-0.278
Mof_H 	H 	0.03	0.2713	0.2052	0.133
Mof_C 	C 	0.0843	0.2694	0.1479	0.59
Mof_N 	N 	0.0025	0.2078	0.1541	0.558
Mof_H 	H 	0.9648	0.1889	0.1395	-0.11
Mof_H 	H 	0.9886	0.1884	0.1728	-0.042
Mof_H 	H 	0.0281	0.2266	0.1548	-0.671
Mof_C 	C 	0.1047	0.301	0.1182	-0.493
Mof_H 	H 	0.0607	0.2815	0.1041	0.188
Mof_C 	C 	0.261	0.3968	0.0615	0.109
Mof_H 	H 	0.2982	0.3841	0.0709	0.006
Mof_C 	C 	0.2792	0.432	0.03334	-0.15
Mof_C 	C 	0.3591	0.4551	0.01905	0.385
Mof_O 	O 	0.408	0.4448	0.03442	-0.411
Mof_O 	O 	0.3716	0.4837	0.99305	-0.402
Mof_C 	C 	0.73497	0.58843	0.57911	0.156
Mof_H 	H 	0.68947	0.58413	0.58963	-0.012
Mof_C 	C 	0.73787	0.59913	0.54849	-0.278
Mof_H 	H 	0.69667	0.60463	0.53853	0.133
Mof_C 	C 	0.75097	0.60273	0.48123	0.588
Mof_N 	N 	0.66917	0.54113	0.48743	0.556
Mof_H 	H 	0.63147	0.52223	0.47283	-0.11
Mof_H 	H 	0.65527	0.52173	0.50613	-0.042
Mof_H 	H 	0.69477	0.55993	0.48813	-0.669
Mof_C 	C 	0.77137	0.63433	0.45153	-0.491
Mof_H 	H 	0.72737	0.61483	0.43743	0.187
Mof_C 	C 	0.92767	0.73013	0.39483	0.108
Mof_H 	H 	0.96487	0.71743	0.40423	0.007
Mof_C 	C 	0.94587	0.76533	0.36667	-0.148
Mof_C 	C 	0.02577	0.78843	0.35238	0.384
Mof_O 	O 	0.07467	0.77813	0.36775	-0.411
Mof_O 	O 	0.03827	0.81703	0.32638	-0.402
Mof_C 	C 	0.40163	0.92177	0.91245	0.156
Mof_H 	H 	0.35613	0.91747	0.92297	-0.012
Mof_C 	C 	0.40453	0.93247	0.88183	-0.277
Mof_H 	H 	0.36333	0.93797	0.87187	0.133
Mof_C 	C 	0.41763	0.93607	0.81457	0.587
Mof_N 	N 	0.33583	0.87447	0.82077	0.557
Mof_H 	H 	0.29813	0.85557	0.80617	-0.11
Mof_H 	H 	0.32193	0.85507	0.83947	-0.043
Mof_H 	H 	0.36143	0.89327	0.82147	-0.669
Mof_C 	C 	0.43803	0.96767	0.78487	-0.488
Mof_H 	H 	0.39403	0.94817	0.77077	0.187
Mof_C 	C 	0.59433	0.06347	0.72817	0.108
Mof_H 	H 	0.63153	0.05077	0.73757	0.007
Mof_C 	C 	0.61253	0.09867	0.70001	-0.149
Mof_C 	C 	0.69243	0.12177	0.68572	0.385
Mof_O 	O 	0.74133	0.11147	0.70109	-0.411
Mof_O 	O 	0.70493	0.15037	0.65972	-0.402
Mof_C 	C 	0.1868	0.9317	0.24578	0.156
Mof_H 	H 	0.228	0.9772	0.2563	-0.013
Mof_C 	C 	0.1946	0.9288	0.21516	-0.278
Mof_H 	H 	0.2413	0.97	0.2052	0.133
Mof_C 	C 	0.1851	0.9157	0.1479	0.59
Mof_N 	N 	0.2053	0.9975	0.1541	0.557
Mof_H 	H 	0.2241	0.0352	0.1395	-0.11
Mof_H 	H 	0.1998	0.0114	0.1728	-0.042
Mof_H 	H 	0.1985	0.9719	0.1548	-0.671
Mof_C 	C 	0.1963	0.8953	0.1182	-0.493
Mof_H 	H 	0.2208	0.9393	0.1041	0.188
Mof_C 	C 	0.1358	0.739	0.0615	0.109
Mof_H 	H 	0.0859	0.7018	0.0709	0.006
Mof_C 	C 	0.1528	0.7208	0.03334	-0.15
Mof_C 	C 	0.096	0.6409	0.01905	0.385
Mof_O 	O 	0.0368	0.592	0.03442	-0.411
Mof_O 	O 	0.1121	0.6284	0.99305	-0.402
Mof_C 	C 	0.85347	0.26503	0.57911	0.156
Mof_H 	H 	0.89467	0.31053	0.58963	-0.012
Mof_C 	C 	0.86127	0.26213	0.54849	-0.278
Mof_H 	H 	0.90797	0.30333	0.53853	0.133
Mof_C 	C 	0.85177	0.24903	0.48123	0.588
Mof_N 	N 	0.87197	0.33083	0.48743	0.556
Mof_H 	H 	0.89077	0.36853	0.47283	-0.11
Mof_H 	H 	0.86647	0.34473	0.50613	-0.042
Mof_H 	H 	0.86517	0.30523	0.48813	-0.669
Mof_C 	C 	0.86297	0.22863	0.45153	-0.491
Mof_H 	H 	0.88747	0.27263	0.43743	0.187
Mof_C 	C 	0.80247	0.07233	0.39483	0.108
Mof_H 	H 	0.75257	0.03513	0.40423	0.007
Mof_C 	C 	0.81947	0.05413	0.36667	-0.147
Mof_C 	C 	0.76267	0.97423	0.35238	0.384
Mof_O 	O 	0.70347	0.92533	0.36775	-0.411
Mof_O 	O 	0.77877	0.96173	0.32638	-0.402
Mof_C 	C 	0.52013	0.59837	0.91245	0.156
Mof_H 	H 	0.56133	0.64387	0.92297	-0.012
Mof_C 	C 	0.52793	0.59547	0.88183	-0.278
Mof_H 	H 	0.57463	0.63667	0.87187	0.133
Mof_C 	C 	0.51843	0.58237	0.81457	0.588
Mof_N 	N 	0.53863	0.66417	0.82077	0.556
Mof_H 	H 	0.55743	0.70187	0.80617	-0.11
Mof_H 	H 	0.53313	0.67807	0.83947	-0.042
Mof_H 	H 	0.53183	0.63857	0.82147	-0.669
Mof_C 	C 	0.52963	0.56197	0.78487	-0.492
Mof_H 	H 	0.55413	0.60597	0.77077	0.187
Mof_C 	C 	0.46913	0.40567	0.72817	0.109
Mof_H 	H 	0.41923	0.36847	0.73757	0.007
Mof_C 	C 	0.48613	0.38747	0.70001	-0.15
Mof_C 	C 	0.42933	0.30757	0.68572	0.385
Mof_O 	O 	0.37013	0.25867	0.70109	-0.411
Mof_O 	O 	0.44543	0.29507	0.65972	-0.402
Mof_Cu	Cu	0.04428	0.52214	0.97487	0.922
Mof_Cu	Cu	0.71095	0.85547	0.3082	0.922
Mof_Cu	Cu	0.37761	0.18881	0.64153	0.922
Mof_Cu	Cu	0.47786	0.52214	0.97487	0.922
Mof_Cu	Cu	0.14453	0.85547	0.3082	0.922
Mof_Cu	Cu	0.81119	0.18881	0.64153	0.922
Mof_Cu	Cu	0.47786	0.95572	0.97487	0.922
Mof_Cu	Cu	0.14453	0.28905	0.3082	0.922
Mof_Cu	Cu	0.81119	0.62239	0.64153	0.922
Mof_Cu	Cu	0.52214	0.04428	0.02513	0.922
Mof_Cu	Cu	0.18881	0.37761	0.35847	0.922
Mof_Cu	Cu	0.85547	0.71095	0.6918	0.922
Mof_Cu	Cu	0.52214	0.47786	0.02513	0.922
Mof_Cu	Cu	0.18881	0.81119	0.35847	0.922
Mof_Cu	Cu	0.85547	0.14453	0.6918	0.922
Mof_Cu	Cu	0.95572	0.47786	0.02513	0.922
Mof_Cu	Cu	0.62239	0.81119	0.35847	0.922
Mof_Cu	Cu	0.28905	0.14453	0.6918	0.922
Mof_N 	N 	0.1252	0.2504	0.26134	-0.217
Mof_C 	C 	0.1343	0.2686	0.1994	0.316
Mof_C 	C 	0.1483	0.2966	0.1665	-0.477
Mof_C 	C 	0.17415	0.3483	0.10737	0.434
Mof_C 	C 	0.1898	0.3796	0.07636	-0.215
Mof_C 	C 	0.2246	0.4492	0.01892	0.088
Mof_H 	H 	0.2362	0.4724	0.9995	0.036
Mof_N 	N 	0.79187	0.58373	0.59467	-0.217
Mof_C 	C 	0.80097	0.60193	0.53273	0.315
Mof_C 	C 	0.81497	0.62993	0.49983	-0.476
Mof_C 	C 	0.84082	0.68163	0.4407	0.434
Mof_C 	C 	0.85647	0.71293	0.40969	-0.214
Mof_C 	C 	0.89127	0.78253	0.35225	0.088
Mof_H 	H 	0.90287	0.80573	0.33283	0.036
Mof_N 	N 	0.45853	0.91707	0.92801	-0.216
Mof_C 	C 	0.46763	0.93527	0.86607	0.315
Mof_C 	C 	0.48163	0.96327	0.83317	-0.475
Mof_C 	C 	0.50748	0.01497	0.77404	0.429
Mof_C 	C 	0.52313	0.04627	0.74303	-0.213
Mof_C 	C 	0.55793	0.11587	0.68559	0.088
Mof_H 	H 	0.56953	0.13907	0.66617	0.036
Mof_N 	N 	0.7496	0.8748	0.26134	-0.217
Mof_C 	C 	0.7314	0.8657	0.1994	0.316
Mof_C 	C 	0.7034	0.8517	0.1665	-0.477
Mof_C 	C 	0.6517	0.82585	0.10737	0.434
Mof_C 	C 	0.6204	0.8102	0.07636	-0.215
Mof_C 	C 	0.5508	0.7754	0.01892	0.088
Mof_H 	H 	0.5276	0.7638	0.9995	0.036
Mof_N 	N 	0.41627	0.20813	0.59467	-0.217
Mof_C 	C 	0.39807	0.19903	0.53273	0.315
Mof_C 	C 	0.37007	0.18503	0.49983	-0.476
Mof_C 	C 	0.31837	0.15918	0.4407	0.434
Mof_C 	C 	0.28707	0.14353	0.40969	-0.214
Mof_C 	C 	0.21747	0.10873	0.35225	0.088
Mof_H 	H 	0.19427	0.09713	0.33283	0.036
Mof_N 	N 	0.08293	0.54147	0.92801	-0.216
Mof_C 	C 	0.06473	0.53237	0.86607	0.315
Mof_C 	C 	0.03673	0.51837	0.83317	-0.475
Mof_C 	C 	0.98503	0.49252	0.77404	0.429
Mof_C 	C 	0.95373	0.47687	0.74303	-0.213
Mof_C 	C 	0.88413	0.44207	0.68559	0.088
Mof_H 	H 	0.86093	0.43047	0.66617	0.036
Mof_N 	N 	0.1252	0.8748	0.26134	-0.217
Mof_C 	C 	0.1343	0.8657	0.1994	0.316
Mof_C 	C 	0.1483	0.8517	0.1665	-0.478
Mof_C 	C 	0.17415	0.82585	0.10737	0.435
Mof_C 	C 	0.1898	0.8102	0.07636	-0.216
Mof_C 	C 	0.2246	0.7754	0.01892	0.088
Mof_H 	H 	0.2362	0.7638	0.9995	0.036
Mof_N 	N 	0.79187	0.20813	0.59467	-0.217
Mof_C 	C 	0.80097	0.19903	0.53273	0.315
Mof_C 	C 	0.81497	0.18503	0.49983	-0.476
Mof_C 	C 	0.84082	0.15918	0.4407	0.433
Mof_C 	C 	0.85647	0.14353	0.40969	-0.214
Mof_C 	C 	0.89127	0.10873	0.35225	0.087
Mof_H 	H 	0.90287	0.09713	0.33283	0.037
Mof_N 	N 	0.45853	0.54147	0.92801	-0.216
Mof_C 	C 	0.46763	0.53237	0.86607	0.315
Mof_C 	C 	0.48163	0.51837	0.83317	-0.476
Mof_C 	C 	0.50748	0.49252	0.77404	0.434
Mof_C 	C 	0.52313	0.47687	0.74303	-0.215
Mof_C 	C 	0.55793	0.44207	0.68559	0.088
Mof_H 	H 	0.56953	0.43047	0.66617	0.036
Mof_N 	N 	0.2504	0.1252	0.73866	-0.217
Mof_C 	C 	0.2686	0.1343	0.8006	0.316
Mof_C 	C 	0.2966	0.1483	0.8335	-0.477
Mof_C 	C 	0.3483	0.17415	0.89263	0.434
Mof_C 	C 	0.3796	0.1898	0.92364	-0.215
Mof_C 	C 	0.4492	0.2246	0.98108	0.088
Mof_H 	H 	0.4724	0.2362	0.0005	0.036
Mof_N 	N 	0.91707	0.45853	0.07199	-0.216
Mof_C 	C 	0.93527	0.46763	0.13393	0.315
Mof_C 	C 	0.96327	0.48163	0.16683	-0.475
Mof_C 	C 	0.01497	0.50748	0.22596	0.429
Mof_C 	C 	0.04627	0.52313	0.25697	-0.213
Mof_C 	C 	0.11587	0.55793	0.31441	0.088
Mof_H 	H 	0.13907	0.56953	0.33383	0.036
Mof_N 	N 	0.58373	0.79187	0.40533	-0.217
Mof_C 	C 	0.60193	0.80097	0.46727	0.315
Mof_C 	C 	0.62993	0.81497	0.50017	-0.476
Mof_C 	C 	0.68163	0.84082	0.5593	0.434
Mof_C 	C 	0.71293	0.85647	0.59031	-0.214
Mof_C 	C 	0.78253	0.89127	0.64775	0.088
Mof_H 	H 	0.80573	0.90287	0.66717	0.036
Mof_N 	N 	0.8748	0.7496	0.73866	-0.217
Mof_C 	C 	0.8657	0.7314	0.8006	0.316
Mof_C 	C 	0.8517	0.7034	0.8335	-0.477
Mof_C 	C 	0.82585	0.6517	0.89263	0.434
Mof_C 	C 	0.8102	0.6204	0.92364	-0.215
Mof_C 	C 	0.7754	0.5508	0.98108	0.088
Mof_H 	H 	0.7638	0.5276	0.0005	0.036
Mof_N 	N 	0.54147	0.08293	0.07199	-0.216
Mof_C 	C 	0.53237	0.06473	0.13393	0.315
Mof_C 	C 	0.51837	0.03673	0.16683	-0.475
Mof_C 	C 	0.49252	0.98503	0.22596	0.429
Mof_C 	C 	0.47687	0.95373	0.25697	-0.213
Mof_C 	C 	0.44207	0.88413	0.31441	0.088
Mof_H 	H 	0.43047	0.86093	0.33383	0.036
Mof_N 	N 	0.20813	0.41627	0.40533	-0.217
Mof_C 	C 	0.19903	0.39807	0.46727	0.315
Mof_C 	C 	0.18503	0.37007	0.50017	-0.476
Mof_C 	C 	0.15918	0.31837	0.5593	0.434
Mof_C 	C 	0.14353	0.28707	0.59031	-0.214
Mof_C 	C 	0.10873	0.21747	0.64775	0.088
Mof_H 	H 	0.09713	0.19427	0.66717	0.036
Mof_N 	N 	0.8748	0.1252	0.73866	-0.217
Mof_C 	C 	0.8657	0.1343	0.8006	0.316
Mof_C 	C 	0.8517	0.1483	0.8335	-0.478
Mof_C 	C 	0.82585	0.17415	0.89263	0.435
Mof_C 	C 	0.8102	0.1898	0.92364	-0.216
Mof_C 	C 	0.7754	0.2246	0.98108	0.088
Mof_H 	H 	0.7638	0.2362	0.0005	0.036
Mof_N 	N 	0.54147	0.45853	0.07199	-0.216
Mof_C 	C 	0.53237	0.46763	0.13393	0.315
Mof_C 	C 	0.51837	0.48163	0.16683	-0.476
Mof_C 	C 	0.49252	0.50748	0.22596	0.434
Mof_C 	C 	0.47687	0.52313	0.25697	-0.215
Mof_C 	C 	0.44207	0.55793	0.31441	0.088
Mof_H 	H 	0.43047	0.56953	0.33383	0.036
Mof_N 	N 	0.20813	0.79187	0.40533	-0.217
Mof_C 	C 	0.19903	0.80097	0.46727	0.315
Mof_C 	C 	0.18503	0.81497	0.50017	-0.476
Mof_C 	C 	0.15918	0.84082	0.5593	0.433
Mof_C 	C 	0.14353	0.85647	0.59031	-0.214
Mof_C 	C 	0.10873	0.89127	0.64775	0.087
Mof_H 	H 	0.09713	0.90287	0.66717	0.037
_end
