data_functionalizedCrystal
_audit_creation_method	'EQeq! by Chris Wilmer'
_symmetry_space_group_name_H-M	'P1'
_symmetry_Int_Tables_number	1
_symmetry_cell_setting	triclinic
loop_
_symmetry_equiv_pos_as_xyz
  x,y,z
_cell_length_a	18.7632
_cell_length_b	18.7632
_cell_length_c	38.6558
_cell_angle_alpha	90
_cell_angle_beta	90
_cell_angle_gamma	120
loop_
_atom_site_label
_atom_site_type_symbol
_atom_site_fract_x
_atom_site_fract_y
_atom_site_fract_z
_atom_site_charge
Mof_C 	C 	0.76026	0.97275	0.30731	0.359
Mof_C 	C 	0.81953	0.05255	0.2903	-0.068
Mof_C 	C 	0.80462	0.06776	0.25642	-0.009
Mof_H 	H 	0.7564	0.0301	0.2453	0.057
Mof_O 	O 	0.77761	0.96135	0.33751	-0.393
Mof_O 	O 	0.69929	0.92288	0.29001	-0.394
Mof_C 	C 	0.9152	0.1836	0.1805	0.061
Mof_C 	C 	0.9022	0.193	0.1458	-0.332
Mof_C 	C 	0.8232	0.1745	0.1339	-0.046
Mof_C 	C 	0.7572	0.1339	0.1568	0.019
Mof_H 	H 	0.7018	0.1041	0.1481	0.112
Mof_C 	C 	0.7702	0.1245	0.1915	0.151
Mof_H 	H 	0.7251	0.1011	0.2076	0.62
Mof_O 	O 	0.033	0.2435	0.1495	0.041
Mof_N 	N 	0.9721	0.2359	0.1255	-0.589
Mof_N 	N 	0.999	0.2174	0.1816	-0.131
Mof_C 	C 	0.8255	0.1768	0.1339	-0.045
Mof_C 	C 	0.42693	0.30608	0.64064	0.361
Mof_C 	C 	0.4862	0.38588	0.62363	-0.067
Mof_C 	C 	0.47129	0.40109	0.58975	-0.007
Mof_H 	H 	0.42307	0.36343	0.57863	0.058
Mof_O 	O 	0.44428	0.29468	0.67084	-0.392
Mof_O 	O 	0.36596	0.25621	0.62334	-0.393
Mof_C 	C 	0.58187	0.51693	0.51383	0.061
Mof_C 	C 	0.56887	0.52633	0.47913	-0.33
Mof_C 	C 	0.48987	0.50783	0.46723	-0.045
Mof_C 	C 	0.42387	0.46723	0.49013	0.02
Mof_H 	H 	0.36847	0.43743	0.48143	0.112
Mof_C 	C 	0.43687	0.45783	0.52483	0.152
Mof_H 	H 	0.39177	0.43443	0.54093	0.619
Mof_O 	O 	0.69967	0.57683	0.48283	0.043
Mof_N 	N 	0.63877	0.56923	0.45883	-0.586
Mof_N 	N 	0.66567	0.55073	0.51493	-0.131
Mof_C 	C 	0.49217	0.51013	0.46723	-0.045
Mof_C 	C 	0.09359	0.63942	0.97398	0.361
Mof_C 	C 	0.15286	0.71922	0.95697	-0.068
Mof_C 	C 	0.13795	0.73443	0.92309	-0.007
Mof_H 	H 	0.08973	0.69677	0.91197	0.058
Mof_O 	O 	0.11094	0.62802	0.00418	-0.393
Mof_O 	O 	0.03262	0.58955	0.95668	-0.393
Mof_C 	C 	0.24853	0.85027	0.84717	0.062
Mof_C 	C 	0.23553	0.85967	0.81247	-0.331
Mof_C 	C 	0.15653	0.84117	0.80057	-0.045
Mof_C 	C 	0.09053	0.80057	0.82347	0.02
Mof_H 	H 	0.03513	0.77077	0.81477	0.112
Mof_C 	C 	0.10353	0.79117	0.85817	0.152
Mof_H 	H 	0.05843	0.76777	0.87427	0.62
Mof_O 	O 	0.36633	0.91017	0.81617	0.043
Mof_N 	N 	0.30543	0.90257	0.79217	-0.588
Mof_N 	N 	0.33233	0.88407	0.84827	-0.131
Mof_C 	C 	0.15883	0.84347	0.80057	-0.045
Mof_C 	C 	0.02725	0.78751	0.30731	0.36
Mof_C 	C 	0.94745	0.76698	0.2903	-0.067
Mof_C 	C 	0.93224	0.73686	0.25642	-0.007
Mof_H 	H 	0.9699	0.7263	0.2453	0.058
Mof_O 	O 	0.03865	0.81626	0.33751	-0.392
Mof_O 	O 	0.07712	0.77641	0.29001	-0.393
Mof_C 	C 	0.8164	0.7316	0.1805	0.061
Mof_C 	C 	0.807	0.7092	0.1458	-0.33
Mof_C 	C 	0.8255	0.6487	0.1339	-0.045
Mof_C 	C 	0.8661	0.6233	0.1568	0.02
Mof_H 	H 	0.8959	0.5977	0.1481	0.113
Mof_C 	C 	0.8755	0.6457	0.1915	0.152
Mof_H 	H 	0.8989	0.624	0.2076	0.619
Mof_O 	O 	0.7565	0.7895	0.1495	0.043
Mof_N 	N 	0.7641	0.7362	0.1255	-0.587
Mof_N 	N 	0.7826	0.7816	0.1816	-0.131
Mof_C 	C 	0.8232	0.6487	0.1339	-0.045
Mof_C 	C 	0.69392	0.12084	0.64064	0.361
Mof_C 	C 	0.61412	0.10031	0.62363	-0.068
Mof_C 	C 	0.59891	0.07019	0.58975	-0.007
Mof_H 	H 	0.63657	0.05963	0.57863	0.058
Mof_O 	O 	0.70532	0.14959	0.67084	-0.392
Mof_O 	O 	0.74379	0.10974	0.62334	-0.393
Mof_C 	C 	0.48307	0.06493	0.51383	0.062
Mof_C 	C 	0.47367	0.04253	0.47913	-0.331
Mof_C 	C 	0.49217	0.98203	0.46723	-0.045
Mof_C 	C 	0.53277	0.95663	0.49013	0.02
Mof_H 	H 	0.56257	0.93103	0.48143	0.112
Mof_C 	C 	0.54217	0.97903	0.52483	0.152
Mof_H 	H 	0.56557	0.95733	0.54093	0.622
Mof_O 	O 	0.42317	0.12283	0.48283	0.043
Mof_N 	N 	0.43077	0.06953	0.45883	-0.589
Mof_N 	N 	0.44927	0.11493	0.51493	-0.131
Mof_C 	C 	0.48987	0.98203	0.46723	-0.045
Mof_C 	C 	0.36058	0.45418	0.97398	0.361
Mof_C 	C 	0.28078	0.43365	0.95697	-0.067
Mof_C 	C 	0.26557	0.40353	0.92309	-0.007
Mof_H 	H 	0.30323	0.39297	0.91197	0.058
Mof_O 	O 	0.37198	0.48293	0.00418	-0.392
Mof_O 	O 	0.41045	0.44308	0.95668	-0.393
Mof_C 	C 	0.14973	0.39827	0.84717	0.061
Mof_C 	C 	0.14033	0.37587	0.81247	-0.33
Mof_C 	C 	0.15883	0.31537	0.80057	-0.045
Mof_C 	C 	0.19943	0.28997	0.82347	0.02
Mof_H 	H 	0.22923	0.26437	0.81477	0.113
Mof_C 	C 	0.20883	0.31237	0.85817	0.152
Mof_H 	H 	0.23223	0.29067	0.87427	0.619
Mof_O 	O 	0.08983	0.45617	0.81617	0.043
Mof_N 	N 	0.09743	0.40287	0.79217	-0.587
Mof_N 	N 	0.11593	0.44827	0.84827	-0.131
Mof_C 	C 	0.15653	0.31537	0.80057	-0.045
Mof_C 	C 	0.21249	0.23974	0.30731	0.361
Mof_C 	C 	0.23302	0.18047	0.2903	-0.067
Mof_C 	C 	0.26314	0.19538	0.25642	-0.007
Mof_H 	H 	0.2737	0.2436	0.2453	0.058
Mof_O 	O 	0.18374	0.22239	0.33751	-0.392
Mof_O 	O 	0.22359	0.30071	0.29001	-0.393
Mof_C 	C 	0.2684	0.0848	0.1805	0.061
Mof_C 	C 	0.2908	0.0978	0.1458	-0.33
Mof_C 	C 	0.3513	0.1768	0.1339	-0.045
Mof_C 	C 	0.3767	0.2428	0.1568	0.02
Mof_H 	H 	0.4023	0.2982	0.1481	0.112
Mof_C 	C 	0.3543	0.2298	0.1915	0.153
Mof_H 	H 	0.376	0.2749	0.2076	0.62
Mof_O 	O 	0.2105	0.967	0.1495	0.042
Mof_N 	N 	0.2638	0.0279	0.1255	-0.587
Mof_N 	N 	0.2184	0.001	0.1816	-0.13
Mof_C 	C 	0.3513	0.1745	0.1339	-0.045
Mof_C 	C 	0.87916	0.57307	0.64064	0.361
Mof_C 	C 	0.89969	0.5138	0.62363	-0.068
Mof_C 	C 	0.92981	0.52871	0.58975	-0.007
Mof_H 	H 	0.94037	0.57693	0.57863	0.058
Mof_O 	O 	0.85041	0.55572	0.67084	-0.392
Mof_O 	O 	0.89026	0.63404	0.62334	-0.393
Mof_C 	C 	0.93507	0.41813	0.51383	0.062
Mof_C 	C 	0.95747	0.43113	0.47913	-0.331
Mof_C 	C 	0.01797	0.51013	0.46723	-0.045
Mof_C 	C 	0.04337	0.57613	0.49013	0.02
Mof_H 	H 	0.06897	0.63153	0.48143	0.112
Mof_C 	C 	0.02097	0.56313	0.52483	0.152
Mof_H 	H 	0.04267	0.60823	0.54093	0.621
Mof_O 	O 	0.87717	0.30033	0.48283	0.043
Mof_N 	N 	0.93047	0.36123	0.45883	-0.588
Mof_N 	N 	0.88507	0.33433	0.51493	-0.131
Mof_C 	C 	0.01797	0.50783	0.46723	-0.045
Mof_C 	C 	0.54582	0.90641	0.97398	0.361
Mof_C 	C 	0.56635	0.84714	0.95697	-0.067
Mof_C 	C 	0.59647	0.86205	0.92309	-0.007
Mof_H 	H 	0.60703	0.91027	0.91197	0.058
Mof_O 	O 	0.51707	0.88906	0.00418	-0.393
Mof_O 	O 	0.55692	0.96738	0.95668	-0.393
Mof_C 	C 	0.60173	0.75147	0.84717	0.062
Mof_C 	C 	0.62413	0.76447	0.81247	-0.331
Mof_C 	C 	0.68463	0.84347	0.80057	-0.045
Mof_C 	C 	0.71003	0.90947	0.82347	0.02
Mof_H 	H 	0.73563	0.96487	0.81477	0.112
Mof_C 	C 	0.68763	0.89647	0.85817	0.153
Mof_H 	H 	0.70933	0.94157	0.87427	0.619
Mof_O 	O 	0.54383	0.63367	0.81617	0.043
Mof_N 	N 	0.59713	0.69457	0.79217	-0.587
Mof_N 	N 	0.55173	0.66767	0.84827	-0.131
Mof_C 	C 	0.68463	0.84117	0.80057	-0.045
Mof_C 	C 	0.97275	0.76026	0.69269	0.36
Mof_C 	C 	0.05255	0.81953	0.7097	-0.067
Mof_C 	C 	0.06776	0.80462	0.74358	-0.008
Mof_H 	H 	0.0301	0.7564	0.7547	0.058
Mof_O 	O 	0.96135	0.77761	0.66249	-0.392
Mof_O 	O 	0.92288	0.69929	0.70999	-0.393
Mof_C 	C 	0.1836	0.9152	0.8195	0.062
Mof_C 	C 	0.193	0.9022	0.8542	-0.331
Mof_C 	C 	0.1745	0.8232	0.8661	-0.045
Mof_C 	C 	0.1339	0.7572	0.8432	0.02
Mof_H 	H 	0.1041	0.7018	0.8519	0.113
Mof_C 	C 	0.1245	0.7702	0.8085	0.152
Mof_H 	H 	0.1011	0.7251	0.7924	0.621
Mof_O 	O 	0.2435	0.033	0.8505	0.042
Mof_N 	N 	0.2359	0.9721	0.8745	-0.588
Mof_N 	N 	0.2174	0.999	0.8184	-0.13
Mof_C 	C 	0.1768	0.8255	0.8661	-0.045
Mof_C 	C 	0.63942	0.09359	0.02602	0.361
Mof_C 	C 	0.71922	0.15286	0.04303	-0.068
Mof_C 	C 	0.73443	0.13795	0.07691	-0.007
Mof_H 	H 	0.69677	0.08973	0.08803	0.058
Mof_O 	O 	0.62802	0.11094	0.99582	-0.393
Mof_O 	O 	0.58955	0.03262	0.04332	-0.393
Mof_C 	C 	0.85027	0.24853	0.15283	0.062
Mof_C 	C 	0.85967	0.23553	0.18753	-0.331
Mof_C 	C 	0.84117	0.15653	0.19943	-0.045
Mof_C 	C 	0.80057	0.09053	0.17653	0.02
Mof_H 	H 	0.77077	0.03513	0.18523	0.112
Mof_C 	C 	0.79117	0.10353	0.14183	0.152
Mof_H 	H 	0.76777	0.05843	0.12573	0.62
Mof_O 	O 	0.91017	0.36633	0.18383	0.043
Mof_N 	N 	0.90257	0.30543	0.20783	-0.588
Mof_N 	N 	0.88407	0.33233	0.15173	-0.131
Mof_C 	C 	0.84347	0.15883	0.19943	-0.045
Mof_C 	C 	0.30608	0.42693	0.35936	0.361
Mof_C 	C 	0.38588	0.4862	0.37637	-0.067
Mof_C 	C 	0.40109	0.47129	0.41025	-0.007
Mof_H 	H 	0.36343	0.42307	0.42137	0.058
Mof_O 	O 	0.29468	0.44428	0.32916	-0.392
Mof_O 	O 	0.25621	0.36596	0.37666	-0.393
Mof_C 	C 	0.51693	0.58187	0.48617	0.061
Mof_C 	C 	0.52633	0.56887	0.52087	-0.33
Mof_C 	C 	0.50783	0.48987	0.53277	-0.045
Mof_C 	C 	0.46723	0.42387	0.50987	0.02
Mof_H 	H 	0.43743	0.36847	0.51857	0.112
Mof_C 	C 	0.45783	0.43687	0.47517	0.152
Mof_H 	H 	0.43443	0.39177	0.45907	0.619
Mof_O 	O 	0.57683	0.69967	0.51717	0.043
Mof_N 	N 	0.56923	0.63877	0.54117	-0.586
Mof_N 	N 	0.55073	0.66567	0.48507	-0.131
Mof_C 	C 	0.51013	0.49217	0.53277	-0.045
Mof_C 	C 	0.78751	0.02725	0.69269	0.36
Mof_C 	C 	0.76698	0.94745	0.7097	-0.067
Mof_C 	C 	0.73686	0.93224	0.74358	-0.007
Mof_H 	H 	0.7263	0.9699	0.7547	0.058
Mof_O 	O 	0.81626	0.03865	0.66249	-0.392
Mof_O 	O 	0.77641	0.07712	0.70999	-0.393
Mof_C 	C 	0.7316	0.8164	0.8195	0.061
Mof_C 	C 	0.7092	0.807	0.8542	-0.33
Mof_C 	C 	0.6487	0.8255	0.8661	-0.045
Mof_C 	C 	0.6233	0.8661	0.8432	0.02
Mof_H 	H 	0.5977	0.8959	0.8519	0.113
Mof_C 	C 	0.6457	0.8755	0.8085	0.152
Mof_H 	H 	0.624	0.8989	0.7924	0.619
Mof_O 	O 	0.7895	0.7565	0.8505	0.043
Mof_N 	N 	0.7362	0.7641	0.8745	-0.587
Mof_N 	N 	0.7816	0.7826	0.8184	-0.131
Mof_C 	C 	0.6487	0.8232	0.8661	-0.045
Mof_C 	C 	0.45418	0.36058	0.02602	0.361
Mof_C 	C 	0.43365	0.28078	0.04303	-0.067
Mof_C 	C 	0.40353	0.26557	0.07691	-0.007
Mof_H 	H 	0.39297	0.30323	0.08803	0.058
Mof_O 	O 	0.48293	0.37198	0.99582	-0.392
Mof_O 	O 	0.44308	0.41045	0.04332	-0.393
Mof_C 	C 	0.39827	0.14973	0.15283	0.061
Mof_C 	C 	0.37587	0.14033	0.18753	-0.33
Mof_C 	C 	0.31537	0.15883	0.19943	-0.045
Mof_C 	C 	0.28997	0.19943	0.17653	0.02
Mof_H 	H 	0.26437	0.22923	0.18523	0.113
Mof_C 	C 	0.31237	0.20883	0.14183	0.152
Mof_H 	H 	0.29067	0.23223	0.12573	0.619
Mof_O 	O 	0.45617	0.08983	0.18383	0.043
Mof_N 	N 	0.40287	0.09743	0.20783	-0.587
Mof_N 	N 	0.44827	0.11593	0.15173	-0.131
Mof_C 	C 	0.31537	0.15653	0.19943	-0.045
Mof_C 	C 	0.12084	0.69392	0.35936	0.361
Mof_C 	C 	0.10031	0.61412	0.37637	-0.068
Mof_C 	C 	0.07019	0.59891	0.41025	-0.007
Mof_H 	H 	0.05963	0.63657	0.42137	0.058
Mof_O 	O 	0.14959	0.70532	0.32916	-0.392
Mof_O 	O 	0.10974	0.74379	0.37666	-0.393
Mof_C 	C 	0.06493	0.48307	0.48617	0.062
Mof_C 	C 	0.04253	0.47367	0.52087	-0.331
Mof_C 	C 	0.98203	0.49217	0.53277	-0.045
Mof_C 	C 	0.95663	0.53277	0.50987	0.02
Mof_H 	H 	0.93103	0.56257	0.51857	0.112
Mof_C 	C 	0.97903	0.54217	0.47517	0.152
Mof_H 	H 	0.95733	0.56557	0.45907	0.622
Mof_O 	O 	0.12283	0.42317	0.51717	0.043
Mof_N 	N 	0.06953	0.43077	0.54117	-0.589
Mof_N 	N 	0.11493	0.44927	0.48507	-0.131
Mof_C 	C 	0.98203	0.48987	0.53277	-0.045
Mof_C 	C 	0.23974	0.21249	0.69269	0.361
Mof_C 	C 	0.18047	0.23302	0.7097	-0.067
Mof_C 	C 	0.19538	0.26314	0.74358	-0.007
Mof_H 	H 	0.2436	0.2737	0.7547	0.058
Mof_O 	O 	0.22239	0.18374	0.66249	-0.392
Mof_O 	O 	0.30071	0.22359	0.70999	-0.393
Mof_C 	C 	0.0848	0.2684	0.8195	0.061
Mof_C 	C 	0.0978	0.2908	0.8542	-0.33
Mof_C 	C 	0.1768	0.3513	0.8661	-0.045
Mof_C 	C 	0.2428	0.3767	0.8432	0.02
Mof_H 	H 	0.2982	0.4023	0.8519	0.112
Mof_C 	C 	0.2298	0.3543	0.8085	0.153
Mof_H 	H 	0.2749	0.376	0.7924	0.62
Mof_O 	O 	0.967	0.2105	0.8505	0.042
Mof_N 	N 	0.0279	0.2638	0.8745	-0.587
Mof_N 	N 	0.001	0.2184	0.8184	-0.13
Mof_C 	C 	0.1745	0.3513	0.8661	-0.045
Mof_C 	C 	0.90641	0.54582	0.02602	0.361
Mof_C 	C 	0.84714	0.56635	0.04303	-0.067
Mof_C 	C 	0.86205	0.59647	0.07691	-0.007
Mof_H 	H 	0.91027	0.60703	0.08803	0.058
Mof_O 	O 	0.88906	0.51707	0.99582	-0.393
Mof_O 	O 	0.96738	0.55692	0.04332	-0.393
Mof_C 	C 	0.75147	0.60173	0.15283	0.062
Mof_C 	C 	0.76447	0.62413	0.18753	-0.331
Mof_C 	C 	0.84347	0.68463	0.19943	-0.045
Mof_C 	C 	0.90947	0.71003	0.17653	0.02
Mof_H 	H 	0.96487	0.73563	0.18523	0.112
Mof_C 	C 	0.89647	0.68763	0.14183	0.153
Mof_H 	H 	0.94157	0.70933	0.12573	0.619
Mof_O 	O 	0.63367	0.54383	0.18383	0.043
Mof_N 	N 	0.69457	0.59713	0.20783	-0.587
Mof_N 	N 	0.66767	0.55173	0.15173	-0.131
Mof_C 	C 	0.84117	0.68463	0.19943	-0.045
Mof_C 	C 	0.57307	0.87916	0.35936	0.361
Mof_C 	C 	0.5138	0.89969	0.37637	-0.068
Mof_C 	C 	0.52871	0.92981	0.41025	-0.007
Mof_H 	H 	0.57693	0.94037	0.42137	0.058
Mof_O 	O 	0.55572	0.85041	0.32916	-0.392
Mof_O 	O 	0.63404	0.89026	0.37666	-0.393
Mof_C 	C 	0.41813	0.93507	0.48617	0.062
Mof_C 	C 	0.43113	0.95747	0.52087	-0.331
Mof_C 	C 	0.51013	0.01797	0.53277	-0.045
Mof_C 	C 	0.57613	0.04337	0.50987	0.02
Mof_H 	H 	0.63153	0.06897	0.51857	0.112
Mof_C 	C 	0.56313	0.02097	0.47517	0.152
Mof_H 	H 	0.60823	0.04267	0.45907	0.621
Mof_O 	O 	0.30033	0.87717	0.51717	0.043
Mof_N 	N 	0.36123	0.93047	0.54117	-0.588
Mof_N 	N 	0.33433	0.88507	0.48507	-0.131
Mof_C 	C 	0.50783	0.01797	0.53277	-0.045
Mof_C 	C 	0.23974	0.02725	0.69269	0.36
Mof_C 	C 	0.18047	0.94745	0.7097	-0.067
Mof_C 	C 	0.19538	0.93224	0.74358	-0.008
Mof_H 	H 	0.2436	0.9699	0.7547	0.058
Mof_O 	O 	0.22239	0.03865	0.66249	-0.392
Mof_O 	O 	0.30071	0.07712	0.70999	-0.393
Mof_C 	C 	0.0848	0.8164	0.8195	0.062
Mof_C 	C 	0.0978	0.807	0.8542	-0.331
Mof_C 	C 	0.2428	0.8661	0.8432	0.02
Mof_H 	H 	0.2982	0.8959	0.8519	0.113
Mof_C 	C 	0.2298	0.8755	0.8085	0.152
Mof_H 	H 	0.2749	0.8989	0.7924	0.621
Mof_O 	O 	0.967	0.7565	0.8505	0.042
Mof_N 	N 	0.0279	0.7641	0.8745	-0.588
Mof_N 	N 	0.001	0.7826	0.8184	-0.13
Mof_C 	C 	0.90641	0.36058	0.02602	0.361
Mof_C 	C 	0.84714	0.28078	0.04303	-0.068
Mof_C 	C 	0.86205	0.26557	0.07691	-0.007
Mof_H 	H 	0.91027	0.30323	0.08803	0.058
Mof_O 	O 	0.88906	0.37198	0.99582	-0.393
Mof_O 	O 	0.96738	0.41045	0.04332	-0.393
Mof_C 	C 	0.75147	0.14973	0.15283	0.062
Mof_C 	C 	0.76447	0.14033	0.18753	-0.331
Mof_C 	C 	0.90947	0.19943	0.17653	0.02
Mof_H 	H 	0.96487	0.22923	0.18523	0.112
Mof_C 	C 	0.89647	0.20883	0.14183	0.152
Mof_H 	H 	0.94157	0.23223	0.12573	0.62
Mof_O 	O 	0.63367	0.08983	0.18383	0.043
Mof_N 	N 	0.69457	0.09743	0.20783	-0.588
Mof_N 	N 	0.66767	0.11593	0.15173	-0.131
Mof_C 	C 	0.57307	0.69392	0.35936	0.361
Mof_C 	C 	0.5138	0.61412	0.37637	-0.067
Mof_C 	C 	0.52871	0.59891	0.41025	-0.007
Mof_H 	H 	0.57693	0.63657	0.42137	0.058
Mof_O 	O 	0.55572	0.70532	0.32916	-0.392
Mof_O 	O 	0.63404	0.74379	0.37666	-0.393
Mof_C 	C 	0.41813	0.48307	0.48617	0.061
Mof_C 	C 	0.43113	0.47367	0.52087	-0.33
Mof_C 	C 	0.57613	0.53277	0.50987	0.02
Mof_H 	H 	0.63153	0.56257	0.51857	0.112
Mof_C 	C 	0.56313	0.54217	0.47517	0.152
Mof_H 	H 	0.60823	0.56557	0.45907	0.619
Mof_O 	O 	0.30033	0.42317	0.51717	0.043
Mof_N 	N 	0.36123	0.43077	0.54117	-0.586
Mof_N 	N 	0.33433	0.44927	0.48507	-0.131
Mof_C 	C 	0.97275	0.21249	0.69269	0.36
Mof_C 	C 	0.05255	0.23302	0.7097	-0.067
Mof_C 	C 	0.06776	0.26314	0.74358	-0.007
Mof_H 	H 	0.0301	0.2737	0.7547	0.058
Mof_O 	O 	0.96135	0.18374	0.66249	-0.392
Mof_O 	O 	0.92288	0.22359	0.70999	-0.393
Mof_C 	C 	0.1836	0.2684	0.8195	0.061
Mof_C 	C 	0.193	0.2908	0.8542	-0.33
Mof_C 	C 	0.1339	0.3767	0.8432	0.02
Mof_H 	H 	0.1041	0.4023	0.8519	0.113
Mof_C 	C 	0.1245	0.3543	0.8085	0.152
Mof_H 	H 	0.1011	0.376	0.7924	0.619
Mof_O 	O 	0.2435	0.2105	0.8505	0.043
Mof_N 	N 	0.2359	0.2638	0.8745	-0.587
Mof_N 	N 	0.2174	0.2184	0.8184	-0.131
Mof_C 	C 	0.63942	0.54582	0.02602	0.361
Mof_C 	C 	0.71922	0.56635	0.04303	-0.067
Mof_C 	C 	0.73443	0.59647	0.07691	-0.007
Mof_H 	H 	0.69677	0.60703	0.08803	0.058
Mof_O 	O 	0.62802	0.51707	0.99582	-0.392
Mof_O 	O 	0.58955	0.55692	0.04332	-0.393
Mof_C 	C 	0.85027	0.60173	0.15283	0.061
Mof_C 	C 	0.85967	0.62413	0.18753	-0.33
Mof_C 	C 	0.80057	0.71003	0.17653	0.02
Mof_H 	H 	0.77077	0.73563	0.18523	0.113
Mof_C 	C 	0.79117	0.68763	0.14183	0.152
Mof_H 	H 	0.76777	0.70933	0.12573	0.619
Mof_O 	O 	0.91017	0.54383	0.18383	0.043
Mof_N 	N 	0.90257	0.59713	0.20783	-0.587
Mof_N 	N 	0.88407	0.55173	0.15173	-0.131
Mof_C 	C 	0.30608	0.87916	0.35936	0.361
Mof_C 	C 	0.38588	0.89969	0.37637	-0.068
Mof_C 	C 	0.40109	0.92981	0.41025	-0.007
Mof_H 	H 	0.36343	0.94037	0.42137	0.058
Mof_O 	O 	0.29468	0.85041	0.32916	-0.392
Mof_O 	O 	0.25621	0.89026	0.37666	-0.393
Mof_C 	C 	0.51693	0.93507	0.48617	0.062
Mof_C 	C 	0.52633	0.95747	0.52087	-0.331
Mof_C 	C 	0.46723	0.04337	0.50987	0.02
Mof_H 	H 	0.43743	0.06897	0.51857	0.112
Mof_C 	C 	0.45783	0.02097	0.47517	0.152
Mof_H 	H 	0.43443	0.04267	0.45907	0.622
Mof_O 	O 	0.57683	0.87717	0.51717	0.043
Mof_N 	N 	0.56923	0.93047	0.54117	-0.589
Mof_N 	N 	0.55073	0.88507	0.48507	-0.131
Mof_C 	C 	0.78751	0.76026	0.69269	0.361
Mof_C 	C 	0.76698	0.81953	0.7097	-0.067
Mof_C 	C 	0.73686	0.80462	0.74358	-0.007
Mof_H 	H 	0.7263	0.7564	0.7547	0.058
Mof_O 	O 	0.81626	0.77761	0.66249	-0.392
Mof_O 	O 	0.77641	0.69929	0.70999	-0.393
Mof_C 	C 	0.7316	0.9152	0.8195	0.061
Mof_C 	C 	0.7092	0.9022	0.8542	-0.33
Mof_C 	C 	0.6233	0.7572	0.8432	0.02
Mof_H 	H 	0.5977	0.7018	0.8519	0.112
Mof_C 	C 	0.6457	0.7702	0.8085	0.153
Mof_H 	H 	0.624	0.7251	0.7924	0.62
Mof_O 	O 	0.7895	0.033	0.8505	0.042
Mof_N 	N 	0.7362	0.9721	0.8745	-0.587
Mof_N 	N 	0.7816	0.999	0.8184	-0.13
Mof_C 	C 	0.45418	0.09359	0.02602	0.361
Mof_C 	C 	0.43365	0.15286	0.04303	-0.067
Mof_C 	C 	0.40353	0.13795	0.07691	-0.007
Mof_H 	H 	0.39297	0.08973	0.08803	0.058
Mof_O 	O 	0.48293	0.11094	0.99582	-0.393
Mof_O 	O 	0.44308	0.03262	0.04332	-0.393
Mof_C 	C 	0.39827	0.24853	0.15283	0.062
Mof_C 	C 	0.37587	0.23553	0.18753	-0.331
Mof_C 	C 	0.28997	0.09053	0.17653	0.02
Mof_H 	H 	0.26437	0.03513	0.18523	0.112
Mof_C 	C 	0.31237	0.10353	0.14183	0.153
Mof_H 	H 	0.29067	0.05843	0.12573	0.619
Mof_O 	O 	0.45617	0.36633	0.18383	0.043
Mof_N 	N 	0.40287	0.30543	0.20783	-0.587
Mof_N 	N 	0.44827	0.33233	0.15173	-0.131
Mof_C 	C 	0.12084	0.42693	0.35936	0.361
Mof_C 	C 	0.10031	0.4862	0.37637	-0.068
Mof_C 	C 	0.07019	0.47129	0.41025	-0.007
Mof_H 	H 	0.05963	0.42307	0.42137	0.058
Mof_O 	O 	0.14959	0.44428	0.32916	-0.392
Mof_O 	O 	0.10974	0.36596	0.37666	-0.393
Mof_C 	C 	0.06493	0.58187	0.48617	0.062
Mof_C 	C 	0.04253	0.56887	0.52087	-0.331
Mof_C 	C 	0.95663	0.42387	0.50987	0.02
Mof_H 	H 	0.93103	0.36847	0.51857	0.112
Mof_C 	C 	0.97903	0.43687	0.47517	0.152
Mof_H 	H 	0.95733	0.39177	0.45907	0.621
Mof_O 	O 	0.12283	0.69967	0.51717	0.043
Mof_N 	N 	0.06953	0.63877	0.54117	-0.588
Mof_N 	N 	0.11493	0.66567	0.48507	-0.131
Mof_C 	C 	0.02725	0.23974	0.30731	0.36
Mof_C 	C 	0.94745	0.18047	0.2903	-0.067
Mof_C 	C 	0.93224	0.19538	0.25642	-0.008
Mof_H 	H 	0.9699	0.2436	0.2453	0.058
Mof_O 	O 	0.03865	0.22239	0.33751	-0.392
Mof_O 	O 	0.07712	0.30071	0.29001	-0.393
Mof_C 	C 	0.8164	0.0848	0.1805	0.062
Mof_C 	C 	0.807	0.0978	0.1458	-0.331
Mof_C 	C 	0.8661	0.2428	0.1568	0.02
Mof_H 	H 	0.8959	0.2982	0.1481	0.113
Mof_C 	C 	0.8755	0.2298	0.1915	0.152
Mof_H 	H 	0.8989	0.2749	0.2076	0.621
Mof_O 	O 	0.7565	0.967	0.1495	0.042
Mof_N 	N 	0.7641	0.0279	0.1255	-0.588
Mof_N 	N 	0.7826	0.001	0.1816	-0.13
Mof_C 	C 	0.69392	0.57307	0.64064	0.361
Mof_C 	C 	0.61412	0.5138	0.62363	-0.067
Mof_C 	C 	0.59891	0.52871	0.58975	-0.007
Mof_H 	H 	0.63657	0.57693	0.57863	0.058
Mof_O 	O 	0.70532	0.55572	0.67084	-0.392
Mof_O 	O 	0.74379	0.63404	0.62334	-0.393
Mof_C 	C 	0.48307	0.41813	0.51383	0.061
Mof_C 	C 	0.47367	0.43113	0.47913	-0.33
Mof_C 	C 	0.53277	0.57613	0.49013	0.02
Mof_H 	H 	0.56257	0.63153	0.48143	0.112
Mof_C 	C 	0.54217	0.56313	0.52483	0.152
Mof_H 	H 	0.56557	0.60823	0.54093	0.619
Mof_O 	O 	0.42317	0.30033	0.48283	0.043
Mof_N 	N 	0.43077	0.36123	0.45883	-0.586
Mof_N 	N 	0.44927	0.33433	0.51493	-0.131
Mof_C 	C 	0.36058	0.90641	0.97398	0.361
Mof_C 	C 	0.28078	0.84714	0.95697	-0.068
Mof_C 	C 	0.26557	0.86205	0.92309	-0.007
Mof_H 	H 	0.30323	0.91027	0.91197	0.058
Mof_O 	O 	0.37198	0.88906	0.00418	-0.393
Mof_O 	O 	0.41045	0.96738	0.95668	-0.393
Mof_C 	C 	0.14973	0.75147	0.84717	0.062
Mof_C 	C 	0.14033	0.76447	0.81247	-0.331
Mof_C 	C 	0.19943	0.90947	0.82347	0.02
Mof_H 	H 	0.22923	0.96487	0.81477	0.112
Mof_C 	C 	0.20883	0.89647	0.85817	0.152
Mof_H 	H 	0.23223	0.94157	0.87427	0.62
Mof_O 	O 	0.08983	0.63367	0.81617	0.043
Mof_N 	N 	0.09743	0.69457	0.79217	-0.588
Mof_N 	N 	0.11593	0.66767	0.84827	-0.131
Mof_C 	C 	0.21249	0.97275	0.30731	0.36
Mof_C 	C 	0.23302	0.05255	0.2903	-0.067
Mof_C 	C 	0.26314	0.06776	0.25642	-0.007
Mof_H 	H 	0.2737	0.0301	0.2453	0.058
Mof_O 	O 	0.18374	0.96135	0.33751	-0.392
Mof_O 	O 	0.22359	0.92288	0.29001	-0.393
Mof_C 	C 	0.2684	0.1836	0.1805	0.061
Mof_C 	C 	0.2908	0.193	0.1458	-0.33
Mof_C 	C 	0.3767	0.1339	0.1568	0.02
Mof_H 	H 	0.4023	0.1041	0.1481	0.113
Mof_C 	C 	0.3543	0.1245	0.1915	0.152
Mof_H 	H 	0.376	0.1011	0.2076	0.619
Mof_O 	O 	0.2105	0.2435	0.1495	0.043
Mof_N 	N 	0.2638	0.2359	0.1255	-0.587
Mof_N 	N 	0.2184	0.2174	0.1816	-0.131
Mof_C 	C 	0.87916	0.30608	0.64064	0.361
Mof_C 	C 	0.89969	0.38588	0.62363	-0.068
Mof_C 	C 	0.92981	0.40109	0.58975	-0.007
Mof_H 	H 	0.94037	0.36343	0.57863	0.058
Mof_O 	O 	0.85041	0.29468	0.67084	-0.392
Mof_O 	O 	0.89026	0.25621	0.62334	-0.393
Mof_C 	C 	0.93507	0.51693	0.51383	0.062
Mof_C 	C 	0.95747	0.52633	0.47913	-0.331
Mof_C 	C 	0.04337	0.46723	0.49013	0.02
Mof_H 	H 	0.06897	0.43743	0.48143	0.112
Mof_C 	C 	0.02097	0.45783	0.52483	0.152
Mof_H 	H 	0.04267	0.43443	0.54093	0.622
Mof_O 	O 	0.87717	0.57683	0.48283	0.043
Mof_N 	N 	0.93047	0.56923	0.45883	-0.589
Mof_N 	N 	0.88507	0.55073	0.51493	-0.131
Mof_C 	C 	0.54582	0.63942	0.97398	0.361
Mof_C 	C 	0.56635	0.71922	0.95697	-0.067
Mof_C 	C 	0.59647	0.73443	0.92309	-0.007
Mof_H 	H 	0.60703	0.69677	0.91197	0.058
Mof_O 	O 	0.51707	0.62802	0.00418	-0.392
Mof_O 	O 	0.55692	0.58955	0.95668	-0.393
Mof_C 	C 	0.60173	0.85027	0.84717	0.061
Mof_C 	C 	0.62413	0.85967	0.81247	-0.33
Mof_C 	C 	0.71003	0.80057	0.82347	0.02
Mof_H 	H 	0.73563	0.77077	0.81477	0.113
Mof_C 	C 	0.68763	0.79117	0.85817	0.152
Mof_H 	H 	0.70933	0.76777	0.87427	0.619
Mof_O 	O 	0.54383	0.91017	0.81617	0.043
Mof_N 	N 	0.59713	0.90257	0.79217	-0.587
Mof_N 	N 	0.55173	0.88407	0.84827	-0.131
Mof_C 	C 	0.76026	0.78751	0.30731	0.361
Mof_C 	C 	0.81953	0.76698	0.2903	-0.067
Mof_C 	C 	0.80462	0.73686	0.25642	-0.007
Mof_H 	H 	0.7564	0.7263	0.2453	0.058
Mof_O 	O 	0.77761	0.81626	0.33751	-0.392
Mof_O 	O 	0.69929	0.77641	0.29001	-0.393
Mof_C 	C 	0.9152	0.7316	0.1805	0.061
Mof_C 	C 	0.9022	0.7092	0.1458	-0.33
Mof_C 	C 	0.7572	0.6233	0.1568	0.02
Mof_H 	H 	0.7018	0.5977	0.1481	0.112
Mof_C 	C 	0.7702	0.6457	0.1915	0.153
Mof_H 	H 	0.7251	0.624	0.2076	0.62
Mof_O 	O 	0.033	0.7895	0.1495	0.042
Mof_N 	N 	0.9721	0.7362	0.1255	-0.587
Mof_N 	N 	0.999	0.7816	0.1816	-0.13
Mof_C 	C 	0.42693	0.12084	0.64064	0.361
Mof_C 	C 	0.4862	0.10031	0.62363	-0.068
Mof_C 	C 	0.47129	0.07019	0.58975	-0.007
Mof_H 	H 	0.42307	0.05963	0.57863	0.058
Mof_O 	O 	0.44428	0.14959	0.67084	-0.392
Mof_O 	O 	0.36596	0.10974	0.62334	-0.393
Mof_C 	C 	0.58187	0.06493	0.51383	0.062
Mof_C 	C 	0.56887	0.04253	0.47913	-0.331
Mof_C 	C 	0.42387	0.95663	0.49013	0.02
Mof_H 	H 	0.36847	0.93103	0.48143	0.112
Mof_C 	C 	0.43687	0.97903	0.52483	0.152
Mof_H 	H 	0.39177	0.95733	0.54093	0.621
Mof_O 	O 	0.69967	0.12283	0.48283	0.043
Mof_N 	N 	0.63877	0.06953	0.45883	-0.588
Mof_N 	N 	0.66567	0.11493	0.51493	-0.131
Mof_C 	C 	0.09359	0.45418	0.97398	0.361
Mof_C 	C 	0.15286	0.43365	0.95697	-0.067
Mof_C 	C 	0.13795	0.40353	0.92309	-0.007
Mof_H 	H 	0.08973	0.39297	0.91197	0.058
Mof_O 	O 	0.11094	0.48293	0.00418	-0.393
Mof_O 	O 	0.03262	0.44308	0.95668	-0.393
Mof_C 	C 	0.24853	0.39827	0.84717	0.062
Mof_C 	C 	0.23553	0.37587	0.81247	-0.331
Mof_C 	C 	0.09053	0.28997	0.82347	0.02
Mof_H 	H 	0.03513	0.26437	0.81477	0.112
Mof_C 	C 	0.10353	0.31237	0.85817	0.153
Mof_H 	H 	0.05843	0.29067	0.87427	0.619
Mof_O 	O 	0.36633	0.45617	0.81617	0.043
Mof_N 	N 	0.30543	0.40287	0.79217	-0.587
Mof_N 	N 	0.33233	0.44827	0.84827	-0.131
Mof_C 	C 	0.89075	0.10925	0.30699	0.026
Mof_H 	H 	0.9006	0.0994	0.3296	0.064
Mof_C 	C 	0.86127	0.13873	0.23932	-0.015
Mof_C 	C 	0.8492	0.1508	0.2033	0.067
Mof_C 	C 	0.55742	0.44258	0.64032	0.027
Mof_H 	H 	0.56727	0.43273	0.66293	0.064
Mof_C 	C 	0.52794	0.47206	0.57265	-0.015
Mof_C 	C 	0.51587	0.48413	0.53663	0.067
Mof_C 	C 	0.22408	0.77592	0.97366	0.027
Mof_H 	H 	0.23393	0.76607	0.99627	0.064
Mof_C 	C 	0.1946	0.8054	0.90599	-0.015
Mof_C 	C 	0.18253	0.81747	0.86997	0.067
Mof_C 	C 	0.89075	0.7815	0.30699	0.026
Mof_H 	H 	0.9006	0.8012	0.3296	0.064
Mof_C 	C 	0.86127	0.72254	0.23932	-0.015
Mof_C 	C 	0.8492	0.6984	0.2033	0.067
Mof_C 	C 	0.55742	0.11483	0.64032	0.027
Mof_H 	H 	0.56727	0.13453	0.66293	0.064
Mof_C 	C 	0.52794	0.05587	0.57265	-0.016
Mof_C 	C 	0.51587	0.03173	0.53663	0.067
Mof_C 	C 	0.22408	0.44817	0.97366	0.027
Mof_H 	H 	0.23393	0.46787	0.99627	0.064
Mof_C 	C 	0.1946	0.38921	0.90599	-0.015
Mof_C 	C 	0.18253	0.36507	0.86997	0.067
Mof_C 	C 	0.2185	0.10925	0.30699	0.026
Mof_H 	H 	0.1988	0.0994	0.3296	0.064
Mof_C 	C 	0.27746	0.13873	0.23932	-0.015
Mof_C 	C 	0.3016	0.1508	0.2033	0.067
Mof_C 	C 	0.88517	0.44258	0.64032	0.027
Mof_H 	H 	0.86547	0.43273	0.66293	0.064
Mof_C 	C 	0.94413	0.47206	0.57265	-0.016
Mof_C 	C 	0.96827	0.48413	0.53663	0.067
Mof_C 	C 	0.55183	0.77592	0.97366	0.027
Mof_H 	H 	0.53213	0.76607	0.99627	0.064
Mof_C 	C 	0.61079	0.8054	0.90599	-0.015
Mof_C 	C 	0.63493	0.81747	0.86997	0.067
Mof_C 	C 	0.10925	0.89075	0.69301	0.026
Mof_H 	H 	0.0994	0.9006	0.6704	0.064
Mof_C 	C 	0.13873	0.86127	0.76068	-0.015
Mof_C 	C 	0.1508	0.8492	0.7967	0.067
Mof_C 	C 	0.77592	0.22408	0.02634	0.027
Mof_H 	H 	0.76607	0.23393	0.00373	0.064
Mof_C 	C 	0.8054	0.1946	0.09401	-0.015
Mof_C 	C 	0.81747	0.18253	0.13003	0.067
Mof_C 	C 	0.44258	0.55742	0.35968	0.027
Mof_H 	H 	0.43273	0.56727	0.33707	0.064
Mof_C 	C 	0.47206	0.52794	0.42735	-0.015
Mof_C 	C 	0.48413	0.51587	0.46337	0.067
Mof_C 	C 	0.7815	0.89075	0.69301	0.026
Mof_H 	H 	0.8012	0.9006	0.6704	0.064
Mof_C 	C 	0.72254	0.86127	0.76068	-0.015
Mof_C 	C 	0.6984	0.8492	0.7967	0.067
Mof_C 	C 	0.44817	0.22408	0.02634	0.027
Mof_H 	H 	0.46787	0.23393	0.00373	0.064
Mof_C 	C 	0.38921	0.1946	0.09401	-0.015
Mof_C 	C 	0.36507	0.18253	0.13003	0.067
Mof_C 	C 	0.11483	0.55742	0.35968	0.027
Mof_H 	H 	0.13453	0.56727	0.33707	0.064
Mof_C 	C 	0.05587	0.52794	0.42735	-0.016
Mof_C 	C 	0.03173	0.51587	0.46337	0.067
Mof_C 	C 	0.10925	0.2185	0.69301	0.026
Mof_H 	H 	0.0994	0.1988	0.6704	0.064
Mof_C 	C 	0.13873	0.27746	0.76068	-0.015
Mof_C 	C 	0.1508	0.3016	0.7967	0.067
Mof_C 	C 	0.77592	0.55183	0.02634	0.027
Mof_H 	H 	0.76607	0.53213	0.00373	0.064
Mof_C 	C 	0.8054	0.61079	0.09401	-0.015
Mof_C 	C 	0.81747	0.63493	0.13003	0.067
Mof_C 	C 	0.44258	0.88517	0.35968	0.027
Mof_H 	H 	0.43273	0.86547	0.33707	0.064
Mof_C 	C 	0.47206	0.94413	0.42735	-0.016
Mof_C 	C 	0.48413	0.96827	0.46337	0.067
Mof_Cu	Cu	0.71277	0.85638	0.36166	0.91
Mof_Cu	Cu	0.37944	0.18972	0.69499	0.91
Mof_Cu	Cu	0.0461	0.52305	0.02833	0.91
Mof_Cu	Cu	0.14362	0.85638	0.36166	0.91
Mof_Cu	Cu	0.81028	0.18972	0.69499	0.91
Mof_Cu	Cu	0.47695	0.52305	0.02833	0.91
Mof_Cu	Cu	0.14361	0.28723	0.36166	0.91
Mof_Cu	Cu	0.81028	0.62056	0.69499	0.91
Mof_Cu	Cu	0.47695	0.9539	0.02833	0.91
Mof_Cu	Cu	0.85638	0.71277	0.63834	0.91
Mof_Cu	Cu	0.52305	0.0461	0.97167	0.91
Mof_Cu	Cu	0.18972	0.37944	0.30501	0.91
Mof_Cu	Cu	0.85639	0.14362	0.63834	0.91
Mof_Cu	Cu	0.52305	0.47695	0.97167	0.91
Mof_Cu	Cu	0.18972	0.81028	0.30501	0.91
Mof_Cu	Cu	0.28723	0.14361	0.63834	0.91
Mof_Cu	Cu	0.9539	0.47695	0.97167	0.91
Mof_Cu	Cu	0.62056	0.81028	0.30501	0.91
_end
