# CIF file generated by openbabel 2.4.1, see http://openbabel.sf.net
data_I
_chemical_name_common 'image0'
_cell_length_a 14.8303
_cell_length_b 17.913
_cell_length_c 29.8943
_cell_angle_alpha 96.803
_cell_angle_beta 93.488
_cell_angle_gamma 110.229
_space_group_name_H-M_alt 'P 1'
_space_group_name_Hall 'P 1'
loop_
    _symmetry_equiv_pos_as_xyz
    x,y,z
loop_
    _atom_site_label
    _atom_site_type_symbol
    _atom_site_fract_x
    _atom_site_fract_y
    _atom_site_fract_z
    _atom_site_occupancy
    Zn1     Zn   0.05321   0.34645   0.90652   1.000
    Zn2     Zn   0.72123   0.75351   0.56217   1.000
    Zn3     Zn   0.78247   0.34833   0.39967   1.000
    Zn4     Zn   0.46019   0.17367   0.21633   1.000
    N1      N    0.94430   0.26770   0.85920   1.000
    C1      C    0.87160   0.29130   0.84550   1.000
    H1      H    0.87180   0.34260   0.85810   1.000
    C2      C    0.79730   0.24320   0.81370   1.000
    H2      H    0.74570   0.26060   0.80550   1.000
    C3      C    0.79700   0.16980   0.79360   1.000
    C4      C    0.87190   0.14690   0.80700   1.000
    H3      H    0.87460   0.09690   0.79380   1.000
    C5      C    0.94480   0.19770   0.84050   1.000
    H4      H    0.99620   0.18090   0.84990   1.000
    N2      N    0.69720   0.83340   0.61150   1.000
    C6      C    0.75710   0.86830   0.64870   1.000
    H5      H    0.81120   0.85270   0.65450   1.000
    C7      C    0.74400   0.92630   0.67930   1.000
    H6      H    0.78850   0.95010   0.70570   1.000
    C8      C    0.66560   0.94970   0.67140   1.000
    C9      C    0.60250   0.91330   0.63290   1.000
    H7      H    0.54740   0.92750   0.62670   1.000
    C10     C    0.62030   0.85580   0.60340   1.000
    H8      H    0.57730   0.83140   0.57660   1.000
    N3      N    0.29640   0.12400   0.73800   1.000
    C11     C    0.37190   0.16420   0.76710   1.000
    H9      H    0.36580   0.20130   0.79110   1.000
    C12     C    0.46130   0.15510   0.76460   1.000
    H10     H    0.51490   0.18560   0.78620   1.000
    C13     C    0.47020   0.10060   0.72970   1.000
    C14     C    0.39140   0.05680   0.70120   1.000
    H11     H    0.39430   0.01740   0.67760   1.000
    C15     C    0.30380   0.07030   0.70670   1.000
    H12     H    0.24800   0.03860   0.68660   1.000
    C16     C    0.71630   0.11860   0.75960   1.000
    N4      N    0.72560   0.05500   0.73570   1.000
    C17     C    0.65330   0.01450   0.70340   1.000
    N5      N    0.56980   0.02880   0.69780   1.000
    C18     C    0.56420   0.08830   0.72670   1.000
    N6      N    0.63680   0.13860   0.75690   1.000
    N7      N    0.58750   0.66060   0.55330   1.000
    C19     C    0.52920   0.63440   0.51600   1.000
    H13     H    0.54680   0.66000   0.49010   1.000
    C20     C    0.44210   0.57030   0.51270   1.000
    H14     H    0.40050   0.55300   0.48510   1.000
    C21     C    0.41670   0.53230   0.54950   1.000
    C22     C    0.47440   0.56050   0.58930   1.000
    H15     H    0.45750   0.53690   0.61590   1.000
    C23     C    0.56090   0.62680   0.58950   1.000
    H16     H    0.60200   0.64790   0.61720   1.000
    N8      N    0.90690   0.38050   0.44480   1.000
    C24     C    0.98940   0.44050   0.44120   1.000
    H17     H    0.98940   0.47670   0.42040   1.000
    C25     C    0.07500   0.45070   0.46710   1.000
    H18     H    0.13300   0.49320   0.46390   1.000
    C26     C    0.07500   0.39930   0.49720   1.000
    C27     C    0.98830   0.34120   0.50230   1.000
    H19     H    0.98550   0.30640   0.52420   1.000
    C28     C    0.90580   0.33350   0.47570   1.000
    H20     H    0.84650   0.29320   0.47960   1.000
    N9      N    0.19490   0.21740   0.68660   1.000
    C29     C    0.27170   0.28390   0.68860   1.000
    H21     H    0.31690   0.30000   0.71500   1.000
    C30     C    0.28940   0.33090   0.65440   1.000
    H22     H    0.34620   0.37750   0.65680   1.000
    C31     C    0.22270   0.30860   0.61690   1.000
    C32     C    0.14430   0.23990   0.61440   1.000
    H23     H    0.09800   0.22220   0.58840   1.000
    C33     C    0.13280   0.19650   0.64970   1.000
    H24     H    0.07730   0.14900   0.64760   1.000
    C34     C    0.32390   0.46540   0.54840   1.000
    N10     N    0.24840   0.46300   0.52040   1.000
    C35     C    0.16420   0.40420   0.52560   1.000
    N11     N    0.15210   0.35250   0.55440   1.000
    C36     C    0.23260   0.35990   0.58140   1.000
    N12     N    0.32110   0.41640   0.57820   1.000
    N13     N    0.81680   0.27170   0.35250   1.000
    C37     C    0.75250   0.20750   0.32830   1.000
    H25     H    0.68780   0.19090   0.33570   1.000
    C38     C    0.77470   0.16230   0.29220   1.000
    H26     H    0.72520   0.11790   0.27440   1.000
    C39     C    0.86820   0.18270   0.28260   1.000
    C40     C    0.93660   0.25080   0.30810   1.000
    H27     H    0.00210   0.26810   0.30170   1.000
    C41     C    0.90890   0.29270   0.34220   1.000
    H28     H    0.95660   0.33880   0.35960   1.000
    N14     N    0.64500   0.87630   0.08440   1.000
    C42     C    0.73510   0.87530   0.08750   1.000
    H29     H    0.74980   0.83760   0.06690   1.000
    C43     C    0.80750   0.92740   0.11960   1.000
    H30     H    0.87120   0.92640   0.12050   1.000
    C44     C    0.78540   0.98200   0.15090   1.000
    C45     C    0.69080   0.98030   0.14730   1.000
    H31     H    0.67280   0.01590   0.16790   1.000
    C46     C    0.62360   0.92790   0.11420   1.000
    H32     H    0.55950   0.92810   0.11220   1.000
    N15     N    0.31500   0.15920   0.20960   1.000
    C47     C    0.25070   0.09910   0.17970   1.000
    H33     H    0.27360   0.06560   0.16000   1.000
    C48     C    0.15210   0.08470   0.17710   1.000
    H34     H    0.10810   0.04260   0.15550   1.000
    C49     C    0.11920   0.13310   0.20660   1.000
    C50     C    0.18680   0.19500   0.23710   1.000
    H35     H    0.16630   0.22890   0.25770   1.000
    C51     C    0.28280   0.20620   0.23720   1.000
    H36     H    0.32830   0.24920   0.25770   1.000
    C52     C    0.89550   0.13690   0.24550   1.000
    N16     N    0.99090   0.15970   0.24100   1.000
    C53     C    0.01260   0.11500   0.20860   1.000
    N17     N    0.95180   0.05620   0.17790   1.000
    C54     C    0.86020   0.04180   0.18410   1.000
    N18     N    0.82720   0.07770   0.21850   1.000
    N19     N    0.51360   0.24510   0.16750   1.000
    C55     C    0.58580   0.23220   0.14500   1.000
    H37     H    0.60980   0.19170   0.15210   1.000
    C56     C    0.62360   0.27750   0.11220   1.000
    H38     H    0.67160   0.26700   0.09550   1.000
    C57     C    0.59100   0.33930   0.10340   1.000
    C58     C    0.51720   0.34950   0.12570   1.000
    H39     H    0.49150   0.38920   0.11900   1.000
    C59     C    0.48140   0.30320   0.15700   1.000
    H40     H    0.43100   0.31160   0.17260   1.000
    N20     N    0.96310   0.38150   0.94870   1.000
    C60     C    0.93960   0.44710   0.94390   1.000
    H41     H    0.97380   0.48360   0.92490   1.000
    C61     C    0.86740   0.46240   0.96610   1.000
    H42     H    0.85220   0.50880   0.96210   1.000
    C62     C    0.81800   0.41090   0.99370   1.000
    C63     C    0.84370   0.34400   0.99960   1.000
    H43     H    0.81180   0.30750   0.01920   1.000
    C64     C    0.91650   0.33250   0.97630   1.000
    H44     H    0.93410   0.28730   0.98030   1.000
    N21     N    0.57650   0.70660   0.02680   1.000
    C65     C    0.56120   0.66800   0.06130   1.000
    H45     H    0.53410   0.68880   0.08560   1.000
    C66     C    0.58130   0.59840   0.06550   1.000
    H46     H    0.57000   0.57280   0.09170   1.000
    C67     C    0.61850   0.56920   0.02900   1.000
    C68     C    0.63390   0.60770   0.99310   1.000
    H47     H    0.66020   0.58820   0.96800   1.000
    C69     C    0.61070   0.67700   0.99260   1.000
    H48     H    0.62010   0.70340   0.96650   1.000
    C70     C    0.63280   0.39120   0.06990   1.000
    N22     N    0.70070   0.37360   0.04720   1.000
    C71     C    0.73760   0.42270   0.01780   1.000
    N23     N    0.71270   0.48500   0.00900   1.000
    C72     C    0.64590   0.49630   0.03430   1.000
    N24     N    0.60330   0.45080   0.06440   1.000
    I1      I    0.12640   0.27530   0.94890   1.000
    I2      I    0.13540   0.47120   0.86699   1.000
    I3      I    0.74130   0.81970   0.49058   1.000
    I4      I    0.83870   0.69860   0.60065   1.000
    Zn5     Zn   0.17820   0.15990   0.74310   1.000
    I5      I    0.21307   0.26641   0.81186   1.000
    I6      I    0.02177   0.04208   0.72234   1.000
    I7      I    0.78740   0.46444   0.35854   1.000
    I8      I    0.64050   0.26110   0.43751   1.000
    Zn6     Zn   0.56330   0.82170   0.02010   1.000
    I9      I    0.39640   0.80210   0.03690   1.000
    I10     I    0.65050   0.88490   0.95180   1.000
    I11     I    0.53020   0.26500   0.29443   1.000
    I12     I    0.47960   0.04520   0.19110   1.000
    I13     I    0.12210   0.25410   0.95190   1.000
    I14     I    0.14330   0.46080   0.86920   1.000
    I15     I    0.74260   0.81130   0.49057   1.000
    I16     I    0.84040   0.70330   0.60189   1.000
    Zn7     Zn   0.16570   0.14180   0.73390   1.000
    I17     I    0.18330   0.23140   0.81080   1.000
    I18     I    0.01830   0.01510   0.70900   1.000
    I19     I    0.80620   0.46650   0.35670   1.000
    I20     I    0.64770   0.27150   0.43670   1.000
    Zn8     Zn   0.54300   0.80960   0.02760   1.000
    I21     I    0.38390   0.77970   0.06600   1.000
    I22     I    0.59040   0.87650   0.96098   1.000
    I23     I    0.52840   0.24280   0.29090   1.000
    I24     I    0.47160   0.02880   0.18340   1.000
    Zn9     Zn   0.52940   0.79680   0.04740   1.000
    I25     I    0.37840   0.75210   0.09580   1.000
    I26     I    0.52950   0.85860   0.97860   1.000
    Zn10    Zn   0.94679   0.65355   0.09348   1.000
    Zn11    Zn   0.27877   0.24649   0.43783   1.000
    Zn12    Zn   0.21753   0.65167   0.60033   1.000
    Zn13    Zn   0.53981   0.82633   0.78367   1.000
    N25     N    0.05570   0.73230   0.14080   1.000
    C73     C    0.12840   0.70870   0.15450   1.000
    H49     H    0.12820   0.65740   0.14190   1.000
    C74     C    0.20270   0.75680   0.18630   1.000
    H50     H    0.25430   0.73940   0.19450   1.000
    C75     C    0.20300   0.83020   0.20640   1.000
    C76     C    0.12810   0.85310   0.19300   1.000
    H51     H    0.12540   0.90310   0.20620   1.000
    C77     C    0.05520   0.80230   0.15950   1.000
    H52     H    0.00380   0.81910   0.15010   1.000
    N26     N    0.30280   0.16660   0.38850   1.000
    C78     C    0.24290   0.13170   0.35130   1.000
    H53     H    0.18880   0.14730   0.34550   1.000
    C79     C    0.25600   0.07370   0.32070   1.000
    H54     H    0.21150   0.04990   0.29430   1.000
    C80     C    0.33440   0.05030   0.32860   1.000
    C81     C    0.39750   0.08670   0.36710   1.000
    H55     H    0.45260   0.07250   0.37330   1.000
    C82     C    0.37970   0.14420   0.39660   1.000
    H56     H    0.42270   0.16860   0.42340   1.000
    N27     N    0.70360   0.87600   0.26200   1.000
    C83     C    0.62810   0.83580   0.23290   1.000
    H57     H    0.63420   0.79870   0.20890   1.000
    C84     C    0.53870   0.84490   0.23540   1.000
    H58     H    0.48510   0.81440   0.21380   1.000
    C85     C    0.52980   0.89940   0.27030   1.000
    C86     C    0.60860   0.94320   0.29880   1.000
    H59     H    0.60570   0.98260   0.32240   1.000
    C87     C    0.69620   0.92970   0.29330   1.000
    H60     H    0.75200   0.96140   0.31340   1.000
    C88     C    0.28370   0.88140   0.24040   1.000
    N28     N    0.27440   0.94500   0.26430   1.000
    C89     C    0.34670   0.98550   0.29660   1.000
    N29     N    0.43020   0.97120   0.30220   1.000
    C90     C    0.43580   0.91170   0.27330   1.000
    N30     N    0.36320   0.86140   0.24310   1.000
    N31     N    0.41250   0.33940   0.44670   1.000
    C91     C    0.47080   0.36560   0.48400   1.000
    H61     H    0.45320   0.34000   0.50990   1.000
    C92     C    0.55790   0.42970   0.48730   1.000
    H62     H    0.59950   0.44700   0.51490   1.000
    C93     C    0.58330   0.46770   0.45050   1.000
    C94     C    0.52560   0.43950   0.41070   1.000
    H63     H    0.54250   0.46310   0.38410   1.000
    C95     C    0.43910   0.37320   0.41050   1.000
    H64     H    0.39800   0.35210   0.38280   1.000
    N32     N    0.09310   0.61950   0.55520   1.000
    C96     C    0.01060   0.55950   0.55880   1.000
    H65     H    0.01060   0.52330   0.57960   1.000
    C97     C    0.92500   0.54930   0.53290   1.000
    H66     H    0.86700   0.50680   0.53610   1.000
    C98     C    0.92500   0.60070   0.50280   1.000
    C99     C    0.01170   0.65880   0.49770   1.000
    H67     H    0.01450   0.69360   0.47580   1.000
    C100    C    0.09420   0.66650   0.52430   1.000
    H68     H    0.15350   0.70680   0.52040   1.000
    N33     N    0.80510   0.78260   0.31340   1.000
    C101    C    0.72830   0.71610   0.31140   1.000
    H69     H    0.68310   0.70000   0.28500   1.000
    C102    C    0.71060   0.66910   0.34560   1.000
    H70     H    0.65380   0.62250   0.34320   1.000
    C103    C    0.77730   0.69140   0.38310   1.000
    C104    C    0.85570   0.76010   0.38560   1.000
    H71     H    0.90200   0.77780   0.41160   1.000
    C105    C    0.86720   0.80350   0.35030   1.000
    H72     H    0.92270   0.85100   0.35240   1.000
    C106    C    0.67610   0.53460   0.45160   1.000
    N34     N    0.75160   0.53700   0.47960   1.000
    C107    C    0.83580   0.59580   0.47440   1.000
    N35     N    0.84790   0.64750   0.44560   1.000
    C108    C    0.76740   0.64010   0.41860   1.000
    N36     N    0.67890   0.58360   0.42180   1.000
    N37     N    0.18320   0.72830   0.64750   1.000
    C109    C    0.24750   0.79250   0.67170   1.000
    H73     H    0.31220   0.80910   0.66430   1.000
    C110    C    0.22530   0.83770   0.70780   1.000
    H74     H    0.27480   0.88210   0.72560   1.000
    C111    C    0.13180   0.81730   0.71740   1.000
    C112    C    0.06340   0.74920   0.69190   1.000
    H75     H    0.99790   0.73190   0.69830   1.000
    C113    C    0.09110   0.70730   0.65780   1.000
    H76     H    0.04340   0.66120   0.64040   1.000
    N38     N    0.35500   0.12370   0.91560   1.000
    C114    C    0.26490   0.12470   0.91250   1.000
    H77     H    0.25020   0.16240   0.93310   1.000
    C115    C    0.19250   0.07260   0.88040   1.000
    H78     H    0.12880   0.07360   0.87950   1.000
    C116    C    0.21460   0.01800   0.84910   1.000
    C117    C    0.30920   0.01970   0.85270   1.000
    H79     H    0.32720   0.98410   0.83210   1.000
    C118    C    0.37640   0.07210   0.88580   1.000
    H80     H    0.44050   0.07190   0.88780   1.000
    N39     N    0.68500   0.84080   0.79040   1.000
    C119    C    0.74930   0.90090   0.82030   1.000
    H81     H    0.72640   0.93440   0.84000   1.000
    C120    C    0.84790   0.91530   0.82290   1.000
    H82     H    0.89190   0.95740   0.84450   1.000
    C121    C    0.88080   0.86690   0.79340   1.000
    C122    C    0.81320   0.80500   0.76290   1.000
    H83     H    0.83370   0.77110   0.74230   1.000
    C123    C    0.71720   0.79380   0.76280   1.000
    H84     H    0.67170   0.75080   0.74230   1.000
    C124    C    0.10450   0.86310   0.75450   1.000
    N40     N    0.00910   0.84030   0.75900   1.000
    C125    C    0.98740   0.88500   0.79140   1.000
    N41     N    0.04820   0.94380   0.82210   1.000
    C126    C    0.13980   0.95820   0.81590   1.000
    N42     N    0.17280   0.92230   0.78150   1.000
    N43     N    0.48640   0.75490   0.83250   1.000
    C127    C    0.41420   0.76780   0.85500   1.000
    H85     H    0.39020   0.80830   0.84790   1.000
    C128    C    0.37640   0.72250   0.88780   1.000
    H86     H    0.32840   0.73300   0.90450   1.000
    C129    C    0.40900   0.66070   0.89660   1.000
    C130    C    0.48280   0.65050   0.87430   1.000
    H87     H    0.50850   0.61080   0.88100   1.000
    C131    C    0.51860   0.69680   0.84300   1.000
    H88     H    0.56900   0.68840   0.82740   1.000
    N44     N    0.03690   0.61850   0.05130   1.000
    C132    C    0.06040   0.55290   0.05610   1.000
    H89     H    0.02620   0.51640   0.07510   1.000
    C133    C    0.13260   0.53760   0.03390   1.000
    H90     H    0.14780   0.49120   0.03790   1.000
    C134    C    0.18200   0.58910   0.00630   1.000
    C135    C    0.15630   0.65600   0.00040   1.000
    H91     H    0.18820   0.69250   0.98080   1.000
    C136    C    0.08350   0.66750   0.02370   1.000
    H92     H    0.06590   0.71270   0.01970   1.000
    N45     N    0.42350   0.29340   0.97320   1.000
    C137    C    0.43880   0.33200   0.93870   1.000
    H93     H    0.46590   0.31120   0.91440   1.000
    C138    C    0.41870   0.40160   0.93450   1.000
    H94     H    0.43000   0.42720   0.90830   1.000
    C139    C    0.38150   0.43080   0.97100   1.000
    C140    C    0.36610   0.39230   0.00690   1.000
    H95     H    0.33980   0.41180   0.03200   1.000
    C141    C    0.38930   0.32300   0.00740   1.000
    H96     H    0.37990   0.29660   0.03350   1.000
    C142    C    0.36720   0.60880   0.93010   1.000
    N46     N    0.29930   0.62640   0.95280   1.000
    C143    C    0.26240   0.57730   0.98220   1.000
    N47     N    0.28730   0.51500   0.99100   1.000
    C144    C    0.35410   0.50370   0.96570   1.000
    N48     N    0.39670   0.54920   0.93560   1.000
    I27     I    0.87360   0.72470   0.05110   1.000
    I28     I    0.86460   0.52880   0.13301   1.000
    I29     I    0.25870   0.18030   0.50942   1.000
    I30     I    0.16130   0.30140   0.39935   1.000
    Zn14    Zn   0.82180   0.84010   0.25690   1.000
    I31     I    0.78693   0.73359   0.18814   1.000
    I32     I    0.97823   0.95792   0.27766   1.000
    I33     I    0.21260   0.53556   0.64146   1.000
    I34     I    0.35950   0.73890   0.56249   1.000
    Zn15    Zn   0.43670   0.17830   0.97990   1.000
    I35     I    0.60360   0.19790   0.96310   1.000
    I36     I    0.34950   0.11510   0.04820   1.000
    I37     I    0.46980   0.73500   0.70557   1.000
    I38     I    0.52040   0.95480   0.80890   1.000
    I39     I    0.87790   0.74590   0.04810   1.000
    I40     I    0.85670   0.53920   0.13080   1.000
    I41     I    0.25740   0.18870   0.50943   1.000
    I42     I    0.15960   0.29670   0.39811   1.000
    Zn16    Zn   0.83430   0.85820   0.26610   1.000
    I43     I    0.81670   0.76860   0.18920   1.000
    I44     I    0.98170   0.98490   0.29100   1.000
    I45     I    0.19380   0.53350   0.64330   1.000
    I46     I    0.35230   0.72850   0.56330   1.000
    Zn17    Zn   0.45700   0.19040   0.97240   1.000
    I47     I    0.61610   0.22030   0.93400   1.000
    I48     I    0.40960   0.12350   0.03902   1.000
    I49     I    0.47160   0.75720   0.70910   1.000
    I50     I    0.52840   0.97120   0.81660   1.000
    Zn18    Zn   0.47060   0.20320   0.95260   1.000
    I51     I    0.62160   0.24790   0.90420   1.000
    I52     I    0.47050   0.14140   0.02140   1.000
    C145    C    0.39700   0.51700   0.28940   1.000
    C146    C    0.44000   0.59800   0.32370   1.000
    H97     H    0.50830   0.63640   0.32710   1.000
    C147    C    0.38300   0.55000   0.36450   1.000
    H98     H    0.41110   0.55210   0.39610   1.000
    C148    C    0.34800   0.47600   0.32600   1.000
    H99     H    0.34560   0.42130   0.33100   1.000
    C149    C    0.25300   0.49400   0.31130   1.000
    H100    H    0.18470   0.45510   0.30810   1.000
    C150    C    0.30200   0.54000   0.27610   1.000
    H101    H    0.27210   0.53650   0.24460   1.000
    C151    C    0.35000   0.61900   0.30970   1.000
    H102    H    0.35190   0.67310   0.30370   1.000
    C152    C    0.30200   0.57600   0.35000   1.000
    C153    C    0.45200   0.49000   0.25560   1.000
    O1      O    0.55090   0.52150   0.26450   1.000
    O2      O    0.42200   0.43710   0.22300   1.000
    C154    C    0.62020   0.49950   0.23600   1.000
    H103    H    0.68660   0.53020   0.24950   1.000
    H104    H    0.60790   0.44180   0.23440   1.000
    H105    H    0.61130   0.51220   0.20540   1.000
    C155    C    0.26900   0.59700   0.38960   1.000
    O3      O    0.27300   0.67700   0.39180   1.000
    O4      O    0.18700   0.56500   0.39880   1.000
    C156    C    0.22100   0.70700   0.42690   1.000
    H106    H    0.22970   0.76270   0.42480   1.000
    H107    H    0.15230   0.67360   0.42190   1.000
    H108    H    0.24770   0.70290   0.45710   1.000
    C157    C    0.41300   0.00300   0.53600   1.000
    H109    H    0.45130   0.97080   0.54650   1.000
    H110    H    0.34460   0.96640   0.52960   1.000
    C158    C    0.45000   0.03800   0.49330   1.000
    H111    H    0.43590   0.08670   0.48990   1.000
    H112    H    0.42330   0.99760   0.46560   1.000
    C159    C    0.56000   0.05700   0.50410   1.000
    H113    H    0.58100   0.01530   0.48750   1.000
    H114    H    0.59870   0.11020   0.49660   1.000
    C160    C    0.57000   0.05600   0.55600   1.000
    H115    H    0.63900   0.06870   0.56680   1.000
    H116    H    0.53330   0.00090   0.56210   1.000
    C161    C    0.53200   0.11700   0.58150   1.000
    H117    H    0.55700   0.13020   0.61400   1.000
    H118    H    0.54940   0.16770   0.56800   1.000
    C162    C    0.42200   0.07200   0.57490   1.000
    H119    H    0.38630   0.10620   0.56540   1.000
    H120    H    0.39760   0.05100   0.60280   1.000
    C163    C    0.35500   0.67200   0.41500   1.000
    H121    H    0.36500   0.65280   0.44370   1.000
    H122    H    0.28970   0.63950   0.39970   1.000
    C164    C    0.43300   0.66800   0.38400   1.000
    H123    H    0.40650   0.62090   0.35940   1.000
    H124    H    0.48880   0.66240   0.40140   1.000
    C165    C    0.46600   0.74700   0.36290   1.000
    H125    H    0.50380   0.74140   0.33720   1.000
    H126    H    0.40890   0.75770   0.35100   1.000
    C166    C    0.52900   0.81800   0.39800   1.000
    H127    H    0.59430   0.81650   0.40410   1.000
    H128    H    0.53500   0.86990   0.38730   1.000
    C167    C    0.47800   0.81100   0.44100   1.000
    H129    H    0.48690   0.86530   0.45750   1.000
    H130    H    0.50300   0.78170   0.46150   1.000
    C168    C    0.36900   0.76400   0.42300   1.000
    H131    H    0.35250   0.78120   0.39440   1.000
    H132    H    0.32700   0.77380   0.44560   1.000
    C169    C    0.36900   0.53100   0.28000   1.000
    H133    H    0.29940   0.52220   0.27850   1.000
    H134    H    0.40150   0.56690   0.30870   1.000
    C170    C    0.38300   0.44900   0.28000   1.000
    H135    H    0.34880   0.41180   0.25250   1.000
    H136    H    0.35780   0.42470   0.30690   1.000
    C171    C    0.49300   0.46600   0.28200   1.000
    H137    H    0.52700   0.50590   0.30900   1.000
    H138    H    0.50540   0.41600   0.28470   1.000
    C172    C    0.53500   0.49900   0.23900   1.000
    H139    H    0.60520   0.50950   0.24130   1.000
    H140    H    0.50350   0.45900   0.21190   1.000
    C173    C    0.51700   0.57700   0.23500   1.000
    H141    H    0.56000   0.62070   0.25840   1.000
    H142    H    0.53360   0.59340   0.20480   1.000
    C174    C    0.41200   0.56900   0.24000   1.000
    H143    H    0.37160   0.53660   0.21150   1.000
    H144    H    0.40760   0.62330   0.24170   1.000
    C175    C    0.60300   0.48300   0.71060   1.000
    C176    C    0.56000   0.40200   0.67630   1.000
    H145    H    0.49170   0.36360   0.67290   1.000
    C177    C    0.61700   0.45000   0.63550   1.000
    H146    H    0.58890   0.44790   0.60390   1.000
    C178    C    0.65200   0.52400   0.67400   1.000
    H147    H    0.65440   0.57870   0.66900   1.000
    C179    C    0.74700   0.50600   0.68870   1.000
    H148    H    0.81530   0.54490   0.69190   1.000
    C180    C    0.69800   0.46000   0.72390   1.000
    H149    H    0.72790   0.46350   0.75540   1.000
    C181    C    0.65000   0.38100   0.69030   1.000
    H150    H    0.64810   0.32690   0.69630   1.000
    C182    C    0.69800   0.42400   0.65000   1.000
    C183    C    0.54800   0.51000   0.74440   1.000
    O5      O    0.44910   0.47850   0.73550   1.000
    O6      O    0.57800   0.56290   0.77700   1.000
    C184    C    0.37980   0.50050   0.76400   1.000
    H151    H    0.31340   0.46980   0.75050   1.000
    H152    H    0.39210   0.55820   0.76560   1.000
    H153    H    0.38870   0.48780   0.79460   1.000
    C185    C    0.73100   0.40300   0.61040   1.000
    O7      O    0.72700   0.32300   0.60820   1.000
    O8      O    0.81300   0.43500   0.60120   1.000
    C186    C    0.77900   0.29300   0.57310   1.000
    H154    H    0.77030   0.23730   0.57520   1.000
    H155    H    0.84770   0.32640   0.57810   1.000
    H156    H    0.75230   0.29710   0.54290   1.000
    C187    C    0.58700   0.99700   0.46400   1.000
    H157    H    0.54870   0.02920   0.45350   1.000
    H158    H    0.65540   0.03360   0.47040   1.000
    C188    C    0.55000   0.96200   0.50670   1.000
    H159    H    0.56410   0.91330   0.51010   1.000
    H160    H    0.57670   0.00240   0.53440   1.000
    C189    C    0.44000   0.94300   0.49590   1.000
    H161    H    0.41900   0.98470   0.51250   1.000
    H162    H    0.40130   0.88980   0.50340   1.000
    C190    C    0.43000   0.94400   0.44400   1.000
    H163    H    0.36100   0.93130   0.43320   1.000
    H164    H    0.46670   0.99910   0.43790   1.000
    C191    C    0.46800   0.88300   0.41850   1.000
    H165    H    0.44300   0.86980   0.38600   1.000
    H166    H    0.45060   0.83230   0.43200   1.000
    C192    C    0.57800   0.92800   0.42510   1.000
    H167    H    0.61370   0.89380   0.43460   1.000
    H168    H    0.60240   0.94900   0.39720   1.000
    C193    C    0.64500   0.32800   0.58500   1.000
    H169    H    0.63500   0.34720   0.55630   1.000
    H170    H    0.71030   0.36050   0.60030   1.000
    C194    C    0.56700   0.33200   0.61600   1.000
    H171    H    0.59350   0.37910   0.64060   1.000
    H172    H    0.51120   0.33760   0.59860   1.000
    C195    C    0.53400   0.25300   0.63710   1.000
    H173    H    0.49620   0.25860   0.66280   1.000
    H174    H    0.59110   0.24230   0.64900   1.000
    C196    C    0.47100   0.18200   0.60200   1.000
    H175    H    0.40570   0.18350   0.59590   1.000
    H176    H    0.46500   0.13010   0.61270   1.000
    C197    C    0.52200   0.18900   0.55900   1.000
    H177    H    0.51310   0.13470   0.54250   1.000
    H178    H    0.49700   0.21830   0.53850   1.000
    C198    C    0.63100   0.23600   0.57700   1.000
    H179    H    0.64750   0.21880   0.60560   1.000
    H180    H    0.67300   0.22620   0.55440   1.000
    C199    C    0.63100   0.46900   0.72000   1.000
    H181    H    0.70060   0.47780   0.72150   1.000
    H182    H    0.59850   0.43310   0.69130   1.000
    C200    C    0.61700   0.55100   0.72000   1.000
    H183    H    0.65120   0.58820   0.74750   1.000
    H184    H    0.64220   0.57530   0.69310   1.000
    C201    C    0.50700   0.53400   0.71800   1.000
    H185    H    0.47300   0.49410   0.69100   1.000
    H186    H    0.49460   0.58400   0.71530   1.000
    C202    C    0.46500   0.50100   0.76100   1.000
    H187    H    0.39480   0.49050   0.75870   1.000
    H188    H    0.49650   0.54100   0.78810   1.000
    C203    C    0.48300   0.42300   0.76500   1.000
    H189    H    0.44000   0.37930   0.74160   1.000
    H190    H    0.46640   0.40660   0.79520   1.000
    C204    C    0.58800   0.43100   0.76000   1.000
    H191    H    0.62840   0.46340   0.78850   1.000
    H192    H    0.59240   0.37670   0.75830   1.000
