data_functionalizedCrystal
_audit_creation_method	'EQeq! by Chris Wilmer'
_symmetry_space_group_name_H-M	'P1'
_symmetry_Int_Tables_number	1
_symmetry_cell_setting	triclinic
loop_
_symmetry_equiv_pos_as_xyz
  x,y,z
_cell_length_a	26.1763
_cell_length_b	26.1763
_cell_length_c	26.3956
_cell_angle_alpha	90
_cell_angle_beta	90
_cell_angle_gamma	120
loop_
_atom_site_label
_atom_site_type_symbol
_atom_site_fract_x
_atom_site_fract_y
_atom_site_fract_z
_atom_site_charge
Mof_Y 	Y 	0.84942	0	-0	1.791
Mof_Y 	Y 	0.5738	6.44661e-33	0.42641	1.744
Mof_Y 	Y 	1.62659e-17	0.4262	0.57359	1.734
Mof_Y 	Y 	0.5738	0	0.57359	1.744
Mof_Y 	Y 	0.88068	0.44034	0.5	1.605
Mof_Y 	Y 	0.15058	0.15058	-0	1.757
Mof_Y 	Y 	0.11932	0.55966	0.5	1.603
Mof_Y 	Y 	0.4262	0.4262	0.57359	1.699
Mof_Y 	Y 	4.52989e-17	0.5738	0.57359	1.743
Mof_Y 	Y 	0.55966	0.44034	0.5	1.602
Mof_Y 	Y 	6.34742e-17	0.5738	0.42641	1.743
Mof_Y 	Y 	0.44034	0.88068	0.5	1.604
Mof_Y 	Y 	0.55966	0.11932	0.5	1.603
Mof_Y 	Y 	1.45165e-17	0.15058	-0	1.783
Mof_Y 	Y 	3.44413e-17	0.4262	0.42641	1.734
Mof_Y 	Y 	0.4262	6.44661e-33	0.42641	1.734
Mof_Y 	Y 	0.44034	0.55966	0.5	1.602
Mof_Y 	Y 	0.84942	0.84942	-0	1.769
Mof_Y 	Y 	0.5738	0.5738	0.57359	1.719
Mof_Y 	Y 	5.80659e-17	0.84942	-0	1.79
Mof_Y 	Y 	0.5738	0.5738	0.42641	1.72
Mof_Y 	Y 	0.4262	0	0.57359	1.733
Mof_Y 	Y 	0.4262	0.4262	0.42641	1.699
Mof_Y 	Y 	0.15058	0	-0	1.783
Mof_H 	H 	0.404	0.134	0.2482	0.024
Mof_H 	H 	0.649	0.9246	0.1783	0.03
Mof_H 	H 	2.021e-17	0.2497	0.4241	-3.514
Mof_H 	H 	0.2908	0.0449	0.3164	0.05
Mof_H 	H 	0.5909	0.3198	0.4767	0.082
Mof_H 	H 	0.3166	0.6164	0.5776	-0.08
Mof_H 	H 	0.74275	0.4855	0.5604	0.024
Mof_H 	H 	0.9853	0.7568	0.3125	-0.01
Mof_H 	H 	0.5772	0	0.8363	0.61
Mof_H 	H 	0.0149	0.712	0.2989	0.05
Mof_H 	H 	0.1155	0.2984	0.7591	0.063
Mof_H 	H 	0.758	0.6523	0.7147	0.051
Mof_H 	H 	0.596	0.866	0.7518	0.028
Mof_H 	H 	0.5853	0.3086	0.5162	-0.213
Mof_H 	H 	0.8954	0.6556	0.4973	0.454
Mof_H 	H 	0.1681	0.3206	0.5854	-0.754
Mof_H 	H 	0.866	0.596	0.2482	0.023
Mof_H 	H 	0.9853	0.7568	0.6875	-0.011
Mof_H 	H 	0.188	0.9461	0.6209	-0.687
Mof_H 	H 	0.8845	0.1829	0.7591	0.061
Mof_H 	H 	0.7331	0.3204	0.5174	0.039
Mof_H 	H 	0.6794	0.8319	0.4146	-1.134
Mof_H 	H 	0.2182	0.9178	0.413	-4.459
Mof_H 	H 	-6.17453e-17	0.8848	0.5	0.395
Mof_H 	H 	0.2361	0.1663	0.1717	0.047
Mof_H 	H 	2.03088e-17	0.1604	0.4233	-0.557
Mof_H 	H 	0.3029	0.288	0.2989	0.022
Mof_H 	H 	0.232	0.9055	0.5185	-0.854
Mof_H 	H 	0.5	0	0.1183	-0.49
Mof_H 	H 	0.6048	0.7454	0.474	0.493
Mof_H 	H 	0.4228	0	0.1637	0.6
Mof_H 	H 	0.8319	0.1525	0.5854	-1.488
Mof_H 	H 	0.5853	0.2767	0.4838	-0.213
Mof_H 	H 	0.2497	1.28932e-32	0.5759	-3.514
Mof_H 	H 	0.0698	0.8337	0.8283	0.049
Mof_H 	H 	0.3004	0.0822	0.587	-4.576
Mof_H 	H 	0.351	0.0754	0.1783	0.035
Mof_H 	H 	0.6312	0.2435	0.4977	-0.666
Mof_H 	H 	0.3877	0.6312	0.4977	-0.666
Mof_H 	H 	0.2434	0.0224	0.4306	1.862
Mof_H 	H 	0.7098	0.135	0.6685	0.052
Mof_H 	H 	0.64	0.668	0.3721	0.072
Mof_H 	H 	0.5776	0	0.2529	-1.823
Mof_H 	H 	0.1383	0.7455	0.4597	-0.215
Mof_H 	H 	0.2497	0.2497	0.5759	-3.615
Mof_H 	H 	0.8171	0.7016	0.2409	0.062
Mof_H 	H 	0.779	0.7566	0.5694	1.584
Mof_H 	H 	0.221	0.9776	0.5694	1.654
Mof_H 	H 	0.3477	0.1057	0.2853	0.05
Mof_H 	H 	0.9776	0.221	0.5694	1.654
Mof_H 	H 	0.2998	0.6164	0.5776	-0.08
Mof_H 	H 	0.6414	0.3787	0.5494	-0.467
Mof_H 	H 	0.6048	0.7454	0.526	0.493
Mof_H 	H 	0.3952	0.2546	0.526	0.596
Mof_H 	H 	0.6556	0.7602	0.5027	0.489
Mof_H 	H 	0.649	0.7244	0.1783	0.035
Mof_H 	H 	0.0945	0.3265	0.5185	-0.984
Mof_H 	H 	0.27	0.404	0.7518	0.03
Mof_H 	H 	0.7503	0.7503	0.5759	-3.314
Mof_H 	H 	0.0754	0.7244	0.8217	0.042
Mof_H 	H 	0.0147	0.7715	0.3125	0.047
Mof_H 	H 	0.3086	0.7233	0.5162	-0.214
Mof_H 	H 	0.0539	0.812	0.3791	-0.48
Mof_H 	H 	0.5873	0.3204	0.5174	0.039
Mof_H 	H 	0.2419	0.0539	0.3791	-0.523
Mof_H 	H 	0.4147	0.7233	0.5162	-0.215
Mof_H 	H 	0.9851	0.288	0.2989	-0.007
Mof_H 	H 	0.6523	0.758	0.7147	0.051
Mof_H 	H 	2.68352e-17	0.5776	0.2529	-1.823
Mof_H 	H 	0.1604	0	0.5767	-0.557
Mof_H 	H 	0.5772	0.5772	0.8363	0.608
Mof_H 	H 	0.4068	0.1603	0.5172	-0.271
Mof_H 	H 	0.0149	0.712	0.7011	0.052
Mof_H 	H 	0.3469	0.1971	0.4445	-2.396
Mof_H 	H 	0.3952	0.1406	0.474	0.544
Mof_H 	H 	0.221	0.2434	0.5694	1.801
Mof_H 	H 	0.4224	0.4224	0.2529	-1.829
Mof_H 	H 	0.6796	0.4127	0.5174	0.039
Mof_H 	H 	0.3877	0.7565	0.4977	-0.665
Mof_H 	H 	0.0588	0.2886	0.1091	0.033
Mof_H 	H 	0.865	0.2902	0.6685	0.054
Mof_H 	H 	0.2546	0.8594	0.474	0.585
Mof_H 	H 	0.6735	0.768	0.5185	-0.849
Mof_H 	H 	0.2756	0.9246	0.1783	0.029
Mof_H 	H 	0.288	0.9851	0.7011	-0.009
Mof_H 	H 	0.6164	0.3166	0.5776	-0.08
Mof_H 	H 	0.5776	0.5776	0.7471	-1.827
Mof_H 	H 	0.779	0.0224	0.4306	1.742
Mof_H 	H 	0.8397	0.2465	0.5172	-0.363
Mof_H 	H 	0.7373	0.3586	0.5494	-0.465
Mof_H 	H 	1.4424e-17	0.5	0.1183	-0.49
Mof_H 	H 	0.8594	0.2546	0.474	0.585
Mof_H 	H 	0.27	0.866	0.7518	0.027
Mof_H 	H 	0.1663	0.9302	0.1717	0.042
Mof_H 	H 	0.9246	0.649	0.8217	0.035
Mof_H 	H 	0.1155	0.8171	0.7591	0.061
Mof_H 	H 	0.6971	0.712	0.7011	0.023
Mof_H 	H 	0.5909	0.2711	0.4767	0.082
Mof_H 	H 	0.6164	0.2998	0.4224	-0.081
Mof_H 	H 	0.134	0.73	0.7518	0.029
Mof_H 	H 	0.8029	0.1498	0.4445	-1.919
Mof_H 	H 	0.3688	0.7565	0.4977	-0.665
Mof_H 	H 	0.668	0.028	0.6279	0.076
Mof_H 	H 	0.6317	0.3779	0.4394	0.351
Mof_H 	H 	0.7002	0.3166	0.4224	-0.081
Mof_H 	H 	0.1046	0.3444	0.4973	0.567
Mof_H 	H 	0.25725	0.5145	0.4396	0.023
Mof_H 	H 	0.2465	0.8397	0.5172	-0.363
Mof_H 	H 	0.3586	0.7373	0.5494	-0.465
Mof_H 	H 	0.3444	0.2398	0.4973	0.515
Mof_H 	H 	0.3198	0.7289	0.4767	0.083
Mof_H 	H 	0.028	0.668	0.6279	0.076
Mof_H 	H 	0.6796	0.2669	0.5174	0.039
Mof_H 	H 	0.2538	0.6317	0.5606	0.351
Mof_H 	H 	0.8171	0.1155	0.7591	0.061
Mof_H 	H 	0.8594	0.2546	0.526	0.585
Mof_H 	H 	0.2984	0.1155	0.2409	0.064
Mof_H 	H 	0.8617	0.6072	0.4597	-0.233
Mof_H 	H 	0.6802	0.4091	0.5233	0.083
Mof_H 	H 	0.6317	0.3779	0.5606	0.351
Mof_H 	H 	0.4091	0.6802	0.4767	0.083
Mof_H 	H 	0.3779	0.7462	0.5606	0.351
Mof_H 	H 	4.49148e-17	0.8396	0.5767	-0.497
Mof_H 	H 	0.7092	0.7541	0.6836	0.074
Mof_H 	H 	0.8845	0.7016	0.7591	0.06
Mof_H 	H 	0.2434	0.221	0.5694	1.801
Mof_H 	H 	0.74275	0.25725	0.4396	0.023
Mof_H 	H 	0.5748	0.865	0.6685	0.054
Mof_H 	H 	0.1829	0.8845	0.7591	0.061
Mof_H 	H 	0.0147	0.2432	0.3125	0.047
Mof_H 	H 	0.866	0.596	0.7518	0.028
Mof_H 	H 	0.232	0.3265	0.4815	-0.934
Mof_H 	H 	0.9851	0.6971	0.2989	-0.006
Mof_H 	H 	0.5932	0.7535	0.4828	-0.249
Mof_H 	H 	0.8943	0.242	0.2853	0.052
Mof_H 	H 	4.18896e-17	0.4228	0.8363	0.61
Mof_H 	H 	0.7331	0.4127	0.4826	0.039
Mof_H 	H 	0.6794	0.8319	0.5854	-1.133
Mof_H 	H 	0.6221	0.2538	0.4394	0.352
Mof_H 	H 	0.7454	0.1406	0.526	0.496
Mof_H 	H 	0.2711	0.6802	0.4767	0.082
Mof_H 	H 	0.2984	0.1155	0.7591	0.063
Mof_H 	H 	0.0698	0.8337	0.1717	0.048
Mof_H 	H 	0.2538	0.6317	0.4394	0.351
Mof_H 	H 	0.3004	0.2182	0.587	-4.679
Mof_H 	H 	0.36	0.332	0.3721	0.09
Mof_H 	H 	0.7581	0.812	0.6209	-0.538
Mof_H 	H 	0.1155	0.2984	0.2409	0.064
Mof_H 	H 	0.6802	0.2711	0.4767	0.082
Mof_H 	H 	0.3683	0.7462	0.4394	0.351
Mof_H 	H 	0.6312	0.2435	0.5023	-0.665
Mof_H 	H 	0.1498	0.8029	0.5555	-1.92
Mof_H 	H 	0.6123	0.3688	0.4977	-0.665
Mof_H 	H 	0.5748	0.7098	0.6685	0.055
Mof_H 	H 	0.7565	0.3688	0.4977	-0.665
Mof_H 	H 	0.1681	0.8475	0.4146	-0.486
Mof_H 	H 	0.288	0.3029	0.2989	0.022
Mof_H 	H 	0.0698	0.2361	0.8283	0.05
Mof_H 	H 	0.1498	0.3469	0.4445	-2.142
Mof_H 	H 	0.7016	0.8845	0.2409	0.062
Mof_H 	H 	0.3952	0.1406	0.526	0.544
Mof_H 	H 	0.0945	0.768	0.5185	-0.937
Mof_H 	H 	0.7541	0.0449	0.3164	0.05
Mof_H 	H 	0.5776	1.28932e-32	0.7471	-1.819
Mof_H 	H 	0.1604	0.1604	0.5767	-0.576
Mof_H 	H 	0.8594	0.6048	0.526	0.53
Mof_H 	H 	1.58818e-17	0.1604	0.5767	-0.557
Mof_H 	H 	0.1971	0.8502	0.4445	-2.349
Mof_H 	H 	0.74275	0.4855	0.4396	0.024
Mof_H 	H 	0.8397	0.5932	0.5172	-0.307
Mof_H 	H 	0.2298	0.9412	0.8909	0.042
Mof_H 	H 	0.028	0.36	0.3721	0.083
Mof_H 	H 	0.8396	0	0.5767	-0.497
Mof_H 	H 	0.3166	0.6164	0.4224	-0.081
Mof_H 	H 	0.1829	0.8845	0.2409	0.062
Mof_H 	H 	0.7098	0.5748	0.6685	0.055
Mof_H 	H 	0.8954	0.2398	0.5027	0.462
Mof_H 	H 	0.812	0.0539	0.3791	-0.48
Mof_H 	H 	0.3928	0.1383	0.4597	-0.24
Mof_H 	H 	0.188	0.2419	0.3791	-0.641
Mof_H 	H 	0.8475	0.1681	0.4146	-0.486
Mof_H 	H 	0.596	0.866	0.2482	0.023
Mof_H 	H 	0.2767	0.5853	0.4838	-0.213
Mof_H 	H 	0.9851	0.6971	0.7011	-0.008
Mof_H 	H 	0.3204	0.5873	0.5174	0.039
Mof_H 	H 	0.3086	0.7233	0.4838	-0.214
Mof_H 	H 	0.3265	0.232	0.4815	-0.934
Mof_H 	H 	0.9178	0.2182	0.413	-4.459
Mof_H 	H 	0.6317	0.2538	0.4394	0.351
Mof_H 	H 	0.3469	0.1498	0.5555	-2.145
Mof_H 	H 	0.6164	0.3166	0.4224	-0.081
Mof_H 	H 	0.3204	0.7331	0.5174	0.039
Mof_H 	H 	0.6796	0.4127	0.4826	0.039
Mof_H 	H 	0.6531	0.8029	0.4445	-1.914
Mof_H 	H 	0.2398	0.3444	0.5027	0.514
Mof_H 	H 	0.3787	0.7373	0.4506	-0.467
Mof_H 	H 	0.3688	0.6123	0.5023	-0.665
Mof_H 	H 	0.758	0.1057	0.7147	0.05
Mof_H 	H 	0.6834	0.2998	0.4224	-0.081
Mof_H 	H 	0.7566	0.9776	0.4306	1.557
Mof_H 	H 	0.3206	0.1681	0.4146	-0.753
Mof_H 	H 	0.2459	0.2908	0.6836	0.075
Mof_H 	H 	0.668	0.64	0.6279	0.072
Mof_H 	H 	0.2465	0.4068	0.4828	-0.352
Mof_H 	H 	0.2182	0.3004	0.413	-4.677
Mof_H 	H 	0.9551	0.2459	0.6836	0.101
Mof_H 	H 	0.9461	0.7581	0.3791	-0.626
Mof_H 	H 	0.2497	-6.44661e-33	0.4241	-3.514
Mof_H 	H 	0.3586	0.6213	0.4506	-0.466
Mof_H 	H 	0.5	0.5	0.1183	-0.494
Mof_H 	H 	0.9461	0.188	0.6209	-0.687
Mof_H 	H 	0.1603	0.4068	0.4828	-0.271
Mof_H 	H 	0.3206	0.1525	0.5854	-1.344
Mof_H 	H 	0.6414	0.2627	0.4506	-0.467
Mof_H 	H 	0.6735	0.9055	0.5185	-0.817
Mof_H 	H 	0.6914	0.4147	0.4838	-0.215
Mof_H 	H 	0.73	0.134	0.2482	0.025
Mof_H 	H 	0.2546	0.8594	0.526	0.585
Mof_H 	H 	0.36	0.028	0.3721	0.083
Mof_H 	H 	0.758	0.6523	0.2853	0.051
Mof_H 	H 	0.0822	0.3004	0.587	-4.576
Mof_H 	H 	0.9055	0.232	0.5185	-0.854
Mof_H 	H 	0.9551	0.7092	0.3164	0.098
Mof_H 	H 	0.6523	0.8943	0.2853	0.051
Mof_H 	H 	0.3836	0.7002	0.5776	-0.081
Mof_H 	H 	0.8845	0.1829	0.2409	0.062
Mof_H 	H 	0.2419	0.188	0.3791	-0.641
Mof_H 	H 	0.0224	0.779	0.5694	1.742
Mof_H 	H 	0.74275	0.25725	0.5604	0.023
Mof_H 	H 	0.2545	0.3928	0.5403	-0.264
Mof_H 	H 	0.2298	0.9412	0.1091	0.026
Mof_H 	H 	0.7002	0.3836	0.4224	-0.081
Mof_H 	H 	0.7503	-6.44661e-33	0.4241	-3.365
Mof_H 	H 	0.2908	0.2459	0.6836	0.075
Mof_H 	H 	0.7602	0.6556	0.5027	0.489
Mof_H 	H 	0.1406	0.3952	0.474	0.544
Mof_H 	H 	0.7565	0.3877	0.4977	-0.665
Mof_H 	H 	0.4127	0.7331	0.5174	0.039
Mof_H 	H 	0.7818	0.0822	0.587	-4.279
Mof_H 	H 	0.6996	0.9178	0.413	-4.157
Mof_H 	H 	0.25725	0.5145	0.5604	0.023
Mof_H 	H 	0.6072	0.7455	0.5403	-0.214
Mof_H 	H 	0.27	0.866	0.2482	0.023
Mof_H 	H 	0.712	0.6971	0.7011	0.023
Mof_H 	H 	0.3166	0.7002	0.4224	-0.081
Mof_H 	H 	0.1152	0.1152	0.5	0.456
Mof_H 	H 	0.6796	0.2669	0.4826	0.039
Mof_H 	H 	0.0449	0.7541	0.6836	0.05
Mof_H 	H 	0.972	0.64	0.6279	0.101
Mof_H 	H 	0.2546	0.3952	0.474	0.596
Mof_H 	H 	0.6221	0.3683	0.5606	0.352
Mof_H 	H 	0.6164	0.2998	0.5776	-0.08
Mof_H 	H 	0.7454	0.6048	0.526	0.493
Mof_H 	H 	0.0224	0.2434	0.4306	1.862
Mof_H 	H 	0.3166	0.7002	0.5776	-0.081
Mof_H 	H 	0.6312	0.3877	0.4977	-0.666
Mof_H 	H 	0.6048	0.8594	0.474	0.53
Mof_H 	H 	0.7455	0.1383	0.5403	-0.217
Mof_H 	H 	0.9302	0.7639	0.1717	0.041
Mof_H 	H 	0.8337	0.0698	0.8283	0.049
Mof_H 	H 	0.2711	0.5909	0.4767	0.082
Mof_H 	H 	0.7535	0.5932	0.4828	-0.249
Mof_H 	H 	0.242	0.3477	0.2853	0.052
Mof_H 	H 	0.9302	0.1663	0.8283	0.043
Mof_H 	H 	0.7818	0.6996	0.587	-4.079
Mof_H 	H 	0.5873	0.2669	0.5174	0.038
Mof_H 	H 	0.4228	0.4228	0.1637	0.598
Mof_H 	H 	0.6414	0.3787	0.4506	-0.467
Mof_H 	H 	0.6072	0.7455	0.4597	-0.213
Mof_H 	H 	0.8954	0.6556	0.5027	0.454
Mof_H 	H 	0.1829	0.2984	0.7591	0.062
Mof_H 	H 	0.9853	0.2285	0.6875	-0.012
Mof_H 	H 	0.232	0.3265	0.5185	-0.933
Mof_H 	H 	0.5932	0.8397	0.4828	-0.307
Mof_H 	H 	0.7581	0.9461	0.6209	-0.626
Mof_H 	H 	0.7233	0.4147	0.4838	-0.215
Mof_H 	H 	0.0588	0.7702	0.1091	0.032
Mof_H 	H 	0.4252	0.135	0.3315	0.051
Mof_H 	H 	0.3836	0.6834	0.4224	-0.081
Mof_H 	H 	0.2908	0.0449	0.6836	0.049
Mof_H 	H 	0.5776	0.5776	0.2529	-1.831
Mof_H 	H 	0.351	0.2756	0.8217	0.039
Mof_H 	H 	0.7092	0.9551	0.3164	0.098
Mof_H 	H 	0.3004	0.0822	0.413	-4.572
Mof_H 	H 	0.2432	0.2285	0.3125	0.019
Mof_H 	H 	0.1046	0.7602	0.4973	0.55
Mof_H 	H 	0.7289	0.3198	0.5233	0.083
Mof_H 	H 	0.7462	0.3683	0.5606	0.351
Mof_H 	H 	0.7535	0.1603	0.5172	-0.226
Mof_H 	H 	0.6531	0.8502	0.4445	-2.091
Mof_H 	H 	0.27	0.404	0.2482	0.025
Mof_H 	H 	0.1383	0.3928	0.4597	-0.24
Mof_H 	H 	0.0754	0.351	0.8217	0.041
Mof_H 	H 	0.3928	0.2545	0.5403	-0.264
Mof_H 	H 	0.7455	0.6072	0.4597	-0.213
Mof_H 	H 	0.7541	0.7092	0.6836	0.074
Mof_H 	H 	0.1525	0.8319	0.5854	-1.488
Mof_H 	H 	0.3779	0.6317	0.4394	0.351
Mof_H 	H 	0.2669	0.5873	0.4826	0.038
Mof_H 	H 	-2.02154e-17	0.5772	0.1637	0.6
Mof_H 	H 	0.1829	0.2984	0.2409	0.064
Mof_H 	H 	0.9055	0.6735	0.4815	-0.817
Mof_H 	H 	0.8943	0.242	0.7147	0.052
Mof_H 	H 	0.7602	0.6556	0.4973	0.489
Mof_H 	H 	0.7639	0.9302	0.8283	0.041
Mof_H 	H 	0.6834	0.3836	0.4224	-0.081
Mof_H 	H 	0.7702	0.7114	0.1091	0.028
Mof_H 	H 	0.3779	0.6317	0.5606	0.351
Mof_H 	H 	0.1406	0.3952	0.526	0.544
Mof_H 	H 	0.2546	0.3952	0.526	0.596
Mof_H 	H 	0.2361	0.0698	0.8283	0.05
Mof_H 	H 	0.4127	0.6796	0.5174	0.039
Mof_H 	H 	0.1057	0.3477	0.2853	0.05
Mof_H 	H 	0.812	0.7581	0.3791	-0.538
Mof_H 	H 	0.7535	0.5932	0.5172	-0.249
Mof_H 	H 	0.7503	0.7503	0.4241	-3.315
Mof_H 	H 	0.1152	1.28932e-32	0.5	0.447
Mof_H 	H 	0.0539	0.2419	0.3791	-0.523
Mof_H 	H 	0.1498	0.3469	0.5555	-2.145
Mof_H 	H 	0.1681	0.8475	0.5854	-0.485
Mof_H 	H 	0.8171	0.7016	0.7591	0.06
Mof_H 	H 	0.9302	0.7639	0.8283	0.041
Mof_H 	H 	0.7454	0.1406	0.474	0.496
Mof_H 	H 	0.8617	0.2545	0.5403	-0.26
Mof_H 	H 	0.9178	0.6996	0.587	-4.154
Mof_H 	H 	0.972	0.64	0.3721	0.1
Mof_H 	H 	0.8396	0.8396	0.4233	-0.457
Mof_H 	H 	0.2435	0.6123	0.4977	-0.665
Mof_H 	H 	0.7462	0.3779	0.4394	0.351
Mof_H 	H 	0.3683	0.6221	0.5606	0.352
Mof_H 	H 	0.7602	0.1046	0.4973	0.55
Mof_H 	H 	0.404	0.27	0.7518	0.03
Mof_H 	H 	3.62831e-17	0.5	0.8817	-0.465
Mof_H 	H 	0.242	0.8943	0.7147	0.052
Mof_H 	H 	0.8617	0.6072	0.5403	-0.233
Mof_H 	H 	0.134	0.404	0.2482	0.024
Mof_H 	H 	0.135	0.4252	0.6685	0.052
Mof_H 	H 	0.3586	0.7373	0.4506	-0.466
Mof_H 	H 	0.1383	0.7455	0.5403	-0.217
Mof_H 	H 	0.3444	0.1046	0.4973	0.567
Mof_H 	H 	1.59806e-17	0.2497	0.5759	-3.514
Mof_H 	H 	0.135	0.7098	0.3315	0.052
Mof_H 	H 	0.3477	0.242	0.7147	0.052
Mof_H 	H 	0.2435	0.6312	0.4977	-0.666
Mof_H 	H 	0.6123	0.2435	0.4977	-0.665
Mof_H 	H 	0.9551	0.7092	0.6836	0.099
Mof_H 	H 	0.2711	0.6802	0.5233	0.082
Mof_H 	H 	-1.30523e-17	0.7503	0.5759	-3.364
Mof_H 	H 	0.1603	0.4068	0.5172	-0.271
Mof_H 	H 	0.9776	0.7566	0.5694	1.556
Mof_H 	H 	0.4228	0	0.8363	0.61
Mof_H 	H 	0.8171	0.1155	0.2409	0.063
Mof_H 	H 	0.7244	0.649	0.1783	0.035
Mof_H 	H 	0.3086	0.5853	0.5162	-0.213
Mof_H 	H 	0.2435	0.6312	0.5023	-0.665
Mof_H 	H 	0.0149	0.3029	0.7011	0.052
Mof_H 	H 	0.0822	0.7818	0.587	-4.279
Mof_H 	H 	0.7602	0.1046	0.5027	0.55
Mof_H 	H 	0.0588	0.2886	0.8909	0.05
Mof_H 	H 	0.6834	0.3836	0.5776	-0.079
Mof_H 	H 	0.7331	0.4127	0.5174	0.039
Mof_H 	H 	0.332	0.972	0.3721	0.112
Mof_H 	H 	0.3469	0.1498	0.4445	-2.142
Mof_H 	H 	0.9246	0.2756	0.8217	0.034
Mof_H 	H 	0.6794	0.8475	0.5854	-0.719
Mof_H 	H 	0.2298	0.2886	0.1091	0.03
Mof_H 	H 	0.135	0.7098	0.6685	0.052
Mof_H 	H 	0.3787	0.7373	0.5494	-0.466
Mof_H 	H 	0.6735	0.768	0.4815	-0.847
Mof_H 	H 	0.2465	0.4068	0.5172	-0.351
Mof_H 	H 	0.242	0.8943	0.2853	0.052
Mof_H 	H 	0.866	0.27	0.2482	0.023
Mof_H 	H 	0.5145	0.25725	0.4396	0.023
Mof_H 	H 	0.8594	0.6048	0.474	0.53
Mof_H 	H 	0.1057	0.758	0.2853	0.05
Mof_H 	H 	0.7639	0.8337	0.8283	0.045
Mof_H 	H 	0.7092	0.9551	0.6836	0.099
Mof_H 	H 	0.25725	0.74275	0.4396	0.023
Mof_H 	H 	0.2434	0.0224	0.5694	1.861
Mof_H 	H 	0.6523	0.758	0.2853	0.051
Mof_H 	H 	0.188	0.9461	0.3791	-0.686
Mof_H 	H 	0.7581	0.812	0.3791	-0.538
Mof_H 	H 	0.9853	0.2285	0.3125	-0.01
Mof_H 	H 	0.758	0.1057	0.2853	0.05
Mof_H 	H 	0.2767	0.6914	0.4838	-0.214
Mof_H 	H 	0.7114	0.7702	0.8909	0.044
Mof_H 	H 	0.0539	0.812	0.6209	-0.48
Mof_H 	H 	0.2419	0.0539	0.6209	-0.522
Mof_H 	H 	0.8029	0.6531	0.4445	-1.914
Mof_H 	H 	0.5873	0.2669	0.4826	0.038
Mof_H 	H 	0.779	0.7566	0.4306	1.583
Mof_H 	H 	0.8397	0.5932	0.4828	-0.307
Mof_H 	H 	0.5772	0.5772	0.1637	0.598
Mof_H 	H 	0.8943	0.6523	0.7147	0.051
Mof_H 	H 	0.6996	0.7818	0.587	-4.079
Mof_H 	H 	0.4091	0.6802	0.5233	0.083
Mof_H 	H 	0.9776	0.221	0.4306	1.656
Mof_H 	H 	0.2398	0.3444	0.4973	0.515
Mof_H 	H 	0.5909	0.2711	0.5233	0.082
Mof_H 	H 	0.7541	0.0449	0.6836	0.05
Mof_H 	H 	0.2298	0.2886	0.8909	0.047
Mof_H 	H 	0.028	0.36	0.6279	0.084
Mof_H 	H 	0.7373	0.3787	0.5494	-0.466
Mof_H 	H 	0.6556	0.8954	0.5027	0.454
Mof_H 	H 	0.1498	0.8029	0.4445	-1.919
Mof_H 	H 	0.36	0.332	0.6279	0.09
Mof_H 	H 	0.1604	0.1604	0.4233	-0.577
Mof_H 	H 	0.232	0.9055	0.4815	-0.856
Mof_H 	H 	0.972	0.332	0.3721	0.112
Mof_H 	H 	0.0449	0.2908	0.6836	0.049
Mof_H 	H 	0.3198	0.5909	0.4767	0.082
Mof_H 	H 	0.3928	0.2545	0.4597	-0.266
Mof_H 	H 	0.2285	0.2432	0.6875	0.019
Mof_H 	H 	0.8029	0.6531	0.5555	-1.914
Mof_H 	H 	0.7568	0.9853	0.6875	-0.011
Mof_H 	H 	0.2627	0.6414	0.4506	-0.467
Mof_H 	H 	0.6914	0.2767	0.5162	-0.214
Mof_H 	H 	0.8337	0.7639	0.8283	0.045
Mof_H 	H 	0.7098	0.135	0.3315	0.052
Mof_H 	H 	0.712	0.6971	0.2989	0.023
Mof_H 	H 	0.6794	0.8475	0.4146	-0.72
Mof_H 	H 	0.221	0.2434	0.4306	1.802
Mof_H 	H 	0.5932	0.7535	0.5172	-0.249
Mof_H 	H 	0.5853	0.3086	0.4838	-0.213
Mof_H 	H 	0.64	0.972	0.6279	0.101
Mof_H 	H 	0.64	0.972	0.3721	0.1
Mof_H 	H 	0.7098	0.5748	0.3315	0.055
Mof_H 	H 	0.2285	0.9853	0.6875	-0.012
Mof_H 	H 	0.8954	0.2398	0.4973	0.462
Mof_H 	H 	0.7454	0.6048	0.474	0.493
Mof_H 	H 	0.1406	0.7454	0.474	0.496
Mof_H 	H 	0.7233	0.3086	0.4838	-0.214
Mof_H 	H 	0.2459	0.9551	0.3164	0.1
Mof_H 	H 	0.351	0.2756	0.1783	0.033
Mof_H 	H 	0.2669	0.5873	0.5174	0.038
Mof_H 	H 	0.1525	0.3206	0.4146	-1.343
Mof_H 	H 	0.6414	0.2627	0.5494	-0.467
Mof_H 	H 	0.6072	0.8617	0.4597	-0.233
Mof_H 	H 	1.08371e-17	0.1152	0.5	0.447
Mof_H 	H 	0.7289	0.4091	0.5233	0.083
Mof_H 	H 	0.73	0.134	0.7518	0.029
Mof_H 	H 	0.288	0.3029	0.7011	0.022
Mof_H 	H 	0.2465	0.8397	0.4828	-0.364
Mof_H 	H 	0.8337	0.0698	0.1717	0.048
Mof_H 	H 	0.1603	0.7535	0.5172	-0.226
Mof_H 	H 	0.3029	0.0149	0.2989	0.05
Mof_H 	H 	0.0754	0.351	0.1783	0.035
Mof_H 	H 	0.2711	0.5909	0.5233	0.082
Mof_H 	H 	0.332	0.36	0.6279	0.09
Mof_H 	H 	0.2434	0.221	0.4306	1.802
Mof_H 	H 	0.7566	0.779	0.4306	1.583
Mof_H 	H 	0.2767	0.5853	0.5162	-0.213
Mof_H 	H 	0.6971	0.9851	0.7011	-0.008
Mof_H 	H 	0.6834	0.2998	0.5776	-0.08
Mof_H 	H 	0.4127	0.7331	0.4826	0.039
Mof_H 	H 	0.0698	0.2361	0.1717	0.049
Mof_H 	H 	0.4147	0.6914	0.5162	-0.215
Mof_H 	H 	0.9055	0.6735	0.5185	-0.817
Mof_H 	H 	0.2398	0.8954	0.4973	0.462
Mof_H 	H 	0.2545	0.8617	0.5403	-0.26
Mof_H 	H 	0.36	0.028	0.6279	0.084
Mof_H 	H 	0.3204	0.7331	0.4826	0.039
Mof_H 	H 	0.2756	0.351	0.1783	0.033
Mof_H 	H 	0.3198	0.5909	0.5233	0.082
Mof_H 	H 	0.7002	0.3166	0.5776	-0.081
Mof_H 	H 	0.6996	0.9178	0.587	-4.154
Mof_H 	H 	0.2902	0.4252	0.3315	0.054
Mof_H 	H 	0.5145	0.25725	0.5604	0.023
Mof_H 	H 	0.7244	0.0754	0.1783	0.036
Mof_H 	H 	0.7016	0.8171	0.2409	0.062
Mof_H 	H 	0.7565	0.3877	0.5023	-0.666
Mof_H 	H 	0.1663	0.9302	0.8283	0.043
Mof_H 	H 	0.4068	0.2465	0.4828	-0.352
Mof_H 	H 	0.7233	0.3086	0.5162	-0.214
Mof_H 	H 	0.3469	0.1971	0.5555	-2.396
Mof_H 	H 	0.5909	0.3198	0.5233	0.082
Mof_H 	H 	0.1406	0.7454	0.526	0.496
Mof_H 	H 	0.6312	0.3877	0.5023	-0.666
Mof_H 	H 	0.9178	0.2182	0.587	-4.456
Mof_H 	H 	0.2435	0.6123	0.5023	-0.665
Mof_H 	H 	8.81755e-18	0.4228	0.1637	0.6
Mof_H 	H 	0.1971	0.8502	0.5555	-2.346
Mof_H 	H 	0.7568	0.9853	0.3125	-0.01
Mof_H 	H 	0.0147	0.2432	0.6875	0.049
Mof_H 	H 	0.0945	0.3265	0.4815	-0.984
Mof_H 	H 	0.6221	0.2538	0.5606	0.352
Mof_H 	H 	0.2886	0.2298	0.1091	0.03
Mof_H 	H 	0.2432	0.2285	0.6875	0.019
Mof_H 	H 	0.649	0.9246	0.8217	0.035
Mof_H 	H 	0.3265	0.0945	0.5185	-0.984
Mof_H 	H 	0.8475	0.6794	0.5854	-0.719
Mof_H 	H 	0.332	0.36	0.3721	0.09
Mof_H 	H 	0.221	0.9776	0.4306	1.656
Mof_H 	H 	0.3779	0.7462	0.4394	0.351
Mof_H 	H 	0.2669	0.6796	0.4826	0.039
Mof_H 	H 	0.668	0.028	0.3721	0.075
Mof_H 	H 	0.9412	0.7114	0.8909	0.041
Mof_H 	H 	0.7114	0.9412	0.1091	0.025
Mof_H 	H 	0.5853	0.2767	0.5162	-0.213
Mof_H 	H 	0.3787	0.6414	0.4506	-0.467
Mof_H 	H 	0.2902	0.865	0.3315	0.053
Mof_H 	H 	0.0224	0.2434	0.5694	1.861
Mof_H 	H 	0.7092	0.7541	0.3164	0.074
Mof_H 	H 	0.7233	0.4147	0.5162	-0.215
Mof_H 	H 	0.2182	0.9178	0.587	-4.456
Mof_H 	H 	0.4224	0.4224	0.7471	-1.825
Mof_H 	H 	0.188	0.2419	0.6209	-0.641
Mof_H 	H 	0.779	0.0224	0.5694	1.742
Mof_H 	H 	0.4091	0.7289	0.5233	0.083
Mof_H 	H 	0.7565	0.3688	0.5023	-0.665
Mof_H 	H 	0.7455	0.6072	0.5403	-0.214
Mof_H 	H 	0.2998	0.6164	0.4224	-0.081
Mof_H 	H 	0.2902	0.865	0.6685	0.054
Mof_H 	H 	0.2459	0.9551	0.6836	0.101
Mof_H 	H 	0.4068	0.1603	0.4828	-0.271
Mof_H 	H 	0.7715	0.0147	0.6875	0.049
Mof_H 	H 	0.8617	0.2545	0.4597	-0.26
Mof_H 	H 	0.3444	0.2398	0.5027	0.514
Mof_H 	H 	0.9412	0.7114	0.1091	0.025
Mof_H 	H 	0.2886	0.2298	0.8909	0.047
Mof_H 	H 	0.8502	0.6531	0.4445	-2.091
Mof_H 	H 	0.6531	0.8029	0.5555	-1.914
Mof_H 	H 	-5.23724e-17	0.7503	0.4241	-3.365
Mof_H 	H 	0.9551	0.2459	0.3164	0.1
Mof_H 	H 	0.1383	0.3928	0.5403	-0.24
Mof_H 	H 	0.9461	0.7581	0.6209	-0.626
Mof_H 	H 	0.596	0.73	0.2482	0.025
Mof_H 	H 	0.5	-1.28932e-32	0.8817	-0.465
Mof_H 	H 	0.2545	0.3928	0.4597	-0.266
Mof_H 	H 	0.8848	0.8848	0.5	0.351
Mof_H 	H 	0.1046	0.7602	0.5027	0.55
Mof_H 	H 	0.768	0.0945	0.4815	-0.935
Mof_H 	H 	0.3029	0.288	0.7011	0.022
Mof_H 	H 	0.134	0.404	0.7518	0.029
Mof_H 	H 	0.028	0.668	0.3721	0.075
Mof_H 	H 	0.3683	0.7462	0.5606	0.351
Mof_H 	H 	0.8502	0.1971	0.5555	-2.346
Mof_H 	H 	0.404	0.27	0.2482	0.025
Mof_H 	H 	0.5748	0.7098	0.3315	0.055
Mof_H 	H 	0.8943	0.6523	0.2853	0.051
Mof_H 	H 	0.768	0.6735	0.4815	-0.847
Mof_H 	H 	0.4252	0.2902	0.3315	0.054
Mof_H 	H 	0.6213	0.2627	0.4506	-0.467
Mof_H 	H 	0.8337	0.7639	0.1717	0.044
Mof_H 	H 	0.3586	0.6213	0.5494	-0.466
Mof_H 	H 	0.7244	0.649	0.8217	0.04
Mof_H 	H 	0.9461	0.188	0.3791	-0.686
Mof_H 	H 	0.6123	0.2435	0.5023	-0.665
Mof_H 	H 	0.812	0.0539	0.6209	-0.48
Mof_H 	H 	0.8396	1.28932e-32	0.4233	-0.497
Mof_H 	H 	0.8475	0.6794	0.4146	-0.72
Mof_H 	H 	0.2285	0.2432	0.3125	0.019
Mof_H 	H 	0.3928	0.1383	0.5403	-0.24
Mof_H 	H 	0.8502	0.6531	0.5555	-2.089
Mof_H 	H 	0.7373	0.3586	0.4506	-0.466
Mof_H 	H 	0.6802	0.2711	0.5233	0.082
Mof_H 	H 	0.4147	0.7233	0.4838	-0.215
Mof_H 	H 	0.6317	0.2538	0.5606	0.351
Mof_H 	H 	0.0449	0.2908	0.3164	0.05
Mof_H 	H 	0.1057	0.758	0.7147	0.05
Mof_H 	H 	0.5	0.5	0.8817	-0.469
Mof_H 	H 	0.288	0.9851	0.2989	-0.007
Mof_H 	H 	0.7715	0.0147	0.3125	0.047
Mof_H 	H 	0.2767	0.6914	0.5162	-0.214
Mof_H 	H 	0.7541	0.7092	0.3164	0.074
Mof_H 	H 	0.972	0.332	0.6279	0.113
Mof_H 	H 	0.9178	0.6996	0.413	-4.157
Mof_H 	H 	0.2419	0.188	0.6209	-0.641
Mof_H 	H 	0.7818	0.6996	0.413	-4.08
Mof_H 	H 	0.6914	0.4147	0.5162	-0.215
Mof_H 	H 	0.73	0.596	0.7518	0.03
Mof_H 	H 	0.2285	0.9853	0.3125	-0.01
Mof_H 	H 	0.6213	0.2627	0.5494	-0.466
Mof_H 	H 	0.6531	0.8502	0.5555	-2.089
Mof_H 	H 	0.9246	0.2756	0.1783	0.029
Mof_H 	H 	5.79234e-18	0.8396	0.4233	-0.497
Mof_H 	H 	0.7702	0.0588	0.1091	0.032
Mof_H 	H 	0.9055	0.232	0.4815	-0.856
Mof_H 	H 	-2.19782e-18	0.4224	0.2529	-1.822
Mof_H 	H 	0.2902	0.4252	0.6685	0.054
Mof_H 	H 	0.6213	0.3586	0.5494	-0.466
Mof_H 	H 	0.9412	0.2298	0.8909	0.042
Mof_H 	H 	0.6123	0.3688	0.5023	-0.665
Mof_H 	H 	0.8845	0.7016	0.2409	0.062
Mof_H 	H 	0.351	0.0754	0.8217	0.041
Mof_H 	H 	0.0149	0.3029	0.2989	0.05
Mof_H 	H 	0.404	0.134	0.7518	0.029
Mof_H 	H 	0.7568	0.7715	0.3125	0.019
Mof_H 	H 	0.3877	0.7565	0.5023	-0.666
Mof_H 	H 	0.4252	0.135	0.6685	0.052
Mof_H 	H 	0.0224	0.779	0.4306	1.742
Mof_H 	H 	0.2361	0.0698	0.1717	0.049
Mof_H 	H 	0.4252	0.2902	0.6685	0.054
Mof_H 	H 	0.9412	0.2298	0.1091	0.026
Mof_H 	H 	0.7639	0.9302	0.1717	0.041
Mof_H 	H 	0.7289	0.4091	0.4767	0.083
Mof_H 	H 	0.7455	0.1383	0.4597	-0.215
Mof_H 	H 	0.2432	0.0147	0.6875	0.049
Mof_H 	H 	0.649	0.7244	0.8217	0.04
Mof_H 	H 	0.2886	0.0588	0.1091	0.033
Mof_H 	H 	0.3265	0.232	0.5185	-0.933
Mof_H 	H 	2.3872e-17	0.5776	0.7471	-1.819
Mof_H 	H 	0.4068	0.2465	0.5172	-0.351
Mof_H 	H 	0.3877	0.6312	0.5023	-0.666
Mof_H 	H 	0.1525	0.3206	0.5854	-1.344
Mof_H 	H 	0.7702	0.0588	0.8909	0.048
Mof_H 	H 	0.3477	0.1057	0.7147	0.051
Mof_H 	H 	0.0754	0.7244	0.1783	0.036
Mof_H 	H 	0.8397	0.2465	0.4828	-0.364
Mof_H 	H 	0.7289	0.3198	0.4767	0.083
Mof_H 	H 	0.3787	0.6414	0.5494	-0.467
Mof_H 	H 	0.2398	0.8954	0.5027	0.462
Mof_H 	H 	0.7331	0.3204	0.4826	0.039
Mof_H 	H 	0.2497	0.2497	0.4241	-3.614
Mof_H 	H 	0.7462	0.3683	0.4394	0.351
Mof_H 	H 	0.2984	0.1829	0.7591	0.062
Mof_H 	H 	0.8319	0.6794	0.4146	-1.134
Mof_H 	H 	0.8848	1.28932e-32	0.5	0.395
Mof_H 	H 	0.3952	0.2546	0.474	0.596
Mof_H 	H 	0.0147	0.7715	0.6875	0.049
Mof_H 	H 	0.6802	0.4091	0.4767	0.083
Mof_H 	H 	0.768	0.6735	0.5185	-0.849
Mof_H 	H 	0.1604	1.28932e-32	0.4233	-0.557
Mof_H 	H 	0.2756	0.9246	0.8217	0.034
Mof_H 	H 	0.0449	0.7541	0.3164	0.05
Mof_H 	H 	0.2998	0.6834	0.5776	-0.08
Mof_H 	H 	0.134	0.73	0.2482	0.025
Mof_H 	H 	0.2669	0.6796	0.5174	0.039
Mof_H 	H 	0.3206	0.1525	0.4146	-1.343
Mof_H 	H 	0.4855	0.74275	0.4396	0.024
Mof_H 	H 	0.1603	0.7535	0.4828	-0.226
Mof_H 	H 	0.64	0.668	0.6279	0.072
Mof_H 	H 	0.9851	0.288	0.7011	-0.009
Mof_H 	H 	0.7818	0.0822	0.413	-4.277
Mof_H 	H 	0.4224	0	0.2529	-1.822
Mof_H 	H 	0.9246	0.649	0.1783	0.03
Mof_H 	H 	0.7535	0.1603	0.4828	-0.226
Mof_H 	H 	0.3004	0.2182	0.413	-4.677
Mof_H 	H 	0.4228	0.4228	0.8363	0.608
Mof_H 	H 	0.8396	0.8396	0.5767	-0.458
Mof_H 	H 	0.8319	0.6794	0.5854	-1.133
Mof_H 	H 	0.0822	0.3004	0.413	-4.572
Mof_H 	H 	0.1663	0.2361	0.1717	0.047
Mof_H 	H 	0.4855	0.74275	0.5604	0.024
Mof_H 	H 	0.3444	0.1046	0.5027	0.567
Mof_H 	H 	0.7639	0.8337	0.1717	0.044
Mof_H 	H 	0.865	0.5748	0.6685	0.054
Mof_H 	H 	0.0588	0.7702	0.8909	0.048
Mof_H 	H 	0.4127	0.6796	0.4826	0.039
Mof_H 	H 	0.7016	0.8845	0.7591	0.06
Mof_H 	H 	0.135	0.4252	0.3315	0.051
Mof_H 	H 	0.3688	0.6123	0.4977	-0.665
Mof_H 	H 	0.7566	0.9776	0.5694	1.556
Mof_H 	H 	0.6221	0.3683	0.4394	0.352
Mof_H 	H 	0.1681	0.3206	0.4146	-0.753
Mof_H 	H 	1.28566e-17	0.5772	0.8363	0.61
Mof_H 	H 	0.3836	0.7002	0.4224	-0.081
Mof_H 	H 	0.2545	0.8617	0.4597	-0.26
Mof_H 	H 	0.7568	0.7715	0.6875	0.019
Mof_H 	H 	0.8029	0.1498	0.5555	-1.92
Mof_H 	H 	0.2998	0.6834	0.4224	-0.081
Mof_H 	H 	0.3688	0.7565	0.5023	-0.665
Mof_H 	H 	0.5932	0.8397	0.5172	-0.307
Mof_H 	H 	0.6213	0.3586	0.4506	-0.466
Mof_H 	H 	0.768	0.0945	0.5185	-0.937
Mof_H 	H 	0.7581	0.9461	0.3791	-0.626
Mof_H 	H 	0.25725	0.74275	0.5604	0.023
Mof_H 	H 	0.5873	0.3204	0.4826	0.038
Mof_H 	H 	0.6914	0.2767	0.4838	-0.214
Mof_H 	H 	0.5772	0	0.1637	0.6
Mof_H 	H 	0.6735	0.9055	0.4815	-0.817
Mof_H 	H 	0.5748	0.865	0.3315	0.054
Mof_H 	H 	0.8319	0.1525	0.4146	-1.488
Mof_H 	H 	0.6523	0.8943	0.7147	0.051
Mof_H 	H 	0.6556	0.7602	0.4973	0.489
Mof_H 	H 	0.6971	0.9851	0.2989	-0.006
Mof_H 	H 	0.73	0.596	0.2482	0.025
Mof_H 	H 	0.2182	0.3004	0.587	-4.679
Mof_H 	H 	0.242	0.3477	0.7147	0.052
Mof_H 	H 	0.7002	0.3836	0.5776	-0.081
Mof_H 	H 	0.0539	0.2419	0.6209	-0.522
Mof_H 	H 	0.7462	0.3779	0.5606	0.351
Mof_H 	H 	0.1057	0.3477	0.7147	0.051
Mof_H 	H 	0.712	0.0149	0.2989	0.05
Mof_H 	H 	0.4224	1.28932e-32	0.7471	-1.818
Mof_H 	H 	0.3836	0.6834	0.5776	-0.079
Mof_H 	H 	0.2756	0.351	0.8217	0.039
Mof_H 	H 	0.1663	0.2361	0.8283	0.048
Mof_H 	H 	0.1971	0.3469	0.4445	-2.396
Mof_H 	H 	0.2908	0.2459	0.3164	0.075
Mof_H 	H 	0.6996	0.7818	0.413	-4.08
Mof_H 	H 	0.7114	0.7702	0.1091	0.028
Mof_H 	H 	0.812	0.7581	0.6209	-0.538
Mof_H 	H 	0.2627	0.6414	0.5494	-0.467
Mof_H 	H 	0.3204	0.5873	0.4826	0.038
Mof_H 	H 	0.2984	0.1829	0.2409	0.064
Mof_H 	H 	0.7244	0.0754	0.8217	0.042
Mof_H 	H 	0.8502	0.1971	0.4445	-2.349
Mof_H 	H 	0.3265	0.0945	0.4815	-0.984
Mof_H 	H 	0.712	0.0149	0.7011	0.052
Mof_H 	H 	0.6971	0.712	0.2989	0.023
Mof_H 	H 	0.3206	0.1681	0.5854	-0.754
Mof_H 	H 	0.596	0.73	0.7518	0.03
Mof_H 	H 	0.6048	0.8594	0.526	0.53
Mof_H 	H 	0.866	0.27	0.7518	0.027
Mof_H 	H 	0.2627	0.6213	0.5494	-0.466
Mof_H 	H 	0.7702	0.7114	0.8909	0.044
Mof_H 	H 	0.2459	0.2908	0.3164	0.075
Mof_H 	H 	0.7715	0.7568	0.6875	0.019
Mof_H 	H 	0.9302	0.1663	0.1717	0.042
Mof_H 	H 	0.3683	0.6221	0.4394	0.352
Mof_H 	H 	0.2361	0.1663	0.8283	0.048
Mof_H 	H 	0.7373	0.3787	0.4506	-0.467
Mof_H 	H 	0.4147	0.6914	0.4838	-0.215
Mof_H 	H 	0.7503	1.28932e-32	0.5759	-3.364
Mof_H 	H 	0.2538	0.6221	0.4394	0.352
Mof_H 	H 	0.1155	0.8171	0.2409	0.063
Mof_H 	H 	0.1046	0.3444	0.5027	0.567
Mof_H 	H 	0.332	0.972	0.6279	0.113
Mof_H 	H 	0.8475	0.1681	0.5854	-0.485
Mof_H 	H 	0.7114	0.9412	0.8909	0.041
Mof_H 	H 	0.6072	0.8617	0.5403	-0.233
Mof_H 	H 	0.7016	0.8171	0.7591	0.06
Mof_H 	H 	0.2432	0.0147	0.3125	0.047
Mof_H 	H 	0.0822	0.7818	0.413	-4.277
Mof_H 	H 	-5.16096e-18	0.4224	0.7471	-1.818
Mof_H 	H 	0.3198	0.7289	0.5233	0.083
Mof_H 	H 	0.1971	0.3469	0.5555	-2.396
Mof_H 	H 	0.2886	0.0588	0.8909	0.05
Mof_H 	H 	0.668	0.64	0.3721	0.072
Mof_H 	H 	0.6556	0.8954	0.4973	0.454
Mof_H 	H 	0.3477	0.242	0.2853	0.052
Mof_H 	H 	0.2538	0.6221	0.5606	0.352
Mof_H 	H 	0.3029	0.0149	0.7011	0.052
Mof_H 	H 	0.7566	0.779	0.5694	1.584
Mof_H 	H 	0.865	0.2902	0.3315	0.053
Mof_H 	H 	0.7715	0.7568	0.3125	0.019
Mof_H 	H 	0.2627	0.6213	0.4506	-0.467
Mof_H 	H 	0.4091	0.7289	0.4767	0.083
Mof_H 	H 	0.3086	0.5853	0.4838	-0.213
Mof_H 	H 	0.0945	0.768	0.4815	-0.935
Mof_H 	H 	0.1525	0.8319	0.4146	-1.488
Mof_H 	H 	0.9776	0.7566	0.4306	1.557
Mof_H 	H 	0.865	0.5748	0.3315	0.054
Mof_C 	C 	0.328	0.0065	0.6057	-0.177
Mof_C 	C 	0.267	0.046	0.401	1.564
Mof_C 	C 	0.328	0.0065	0.3943	-0.175
Mof_C 	C 	0.2812	0.4711	0.38964	-0.101
Mof_C 	C 	0.998	0.268	0.679	0
Mof_C 	C 	0.376	0.644	0.526	-0.294
Mof_C 	C 	0.626	0.29	0.545	0.334
Mof_C 	C 	0.3276	0.0938	0.8231	-0.078
Mof_C 	C 	0.889	0.1455	0.1339	-0.088
Mof_C 	C 	0.2066	0.2906	0.1359	-0.004
Mof_C 	C 	0.644	0.268	0.526	-0.295
Mof_C 	C 	0.1462	0.6622	0.4145	0.457
Mof_C 	C 	1.86534e-18	0.2314	0.4551	-3.304
Mof_C 	C 	3.22941e-17	0.4117	0.6789	0.513
Mof_C 	C 	0.7671	0.1431	0.5088	0.243
Mof_C 	C 	0.3276	0.2338	0.1769	-0.087
Mof_C 	C 	0.1783	0	0.5454	1.225
Mof_C 	C 	0.8486	1.28932e-32	0.5	-1.261
Mof_C 	C 	0.1368	0.3696	0.2598	-0.015
Mof_C 	C 	0.0983	0.214	0.0906	0.312
Mof_C 	C 	0.1479	0.8885	0.8269	0.038
Mof_C 	C 	0.1455	0.2565	0.8661	-0.078
Mof_C 	C 	0.1447	0.819	0.5606	2.605
Mof_C 	C 	0.214	0.1157	0.0906	0.311
Mof_C 	C 	0.5289	0.8101	0.38964	-0.105
Mof_C 	C 	0.4374	0.2648	0.6539	0.001
Mof_C 	C 	0.8423	0.7036	0.7858	-0.054
Mof_C 	C 	0.8843	0.786	0.0906	0.319
Mof_C 	C 	0.8217	0.8217	0.4546	0.956
Mof_C 	C 	0.3696	0.2328	0.2598	-0.016
Mof_C 	C 	0.7036	0.8613	0.7858	-0.054
Mof_C 	C 	0.8569	0.2329	0.4912	0.437
Mof_C 	C 	0.8885	0.1479	0.1731	0.044
Mof_C 	C 	0.3696	0.2328	0.7402	-0.017
Mof_C 	C 	0.484	0.1462	0.5855	0.458
Mof_C 	C 	0.002	0.27	0.321	-0.074
Mof_C 	C 	0.8002	0.6695	0.7839	0.021
Mof_C 	C 	0.3305	0.1307	0.2161	0.014
Mof_C 	C 	0.268	0.998	0.321	-0.002
Mof_C 	C 	0.376	0.2329	0.5088	0.414
Mof_C 	C 	0.7352	0.1726	0.3461	-0
Mof_C 	C 	0.7352	0.5626	0.6539	-0.004
Mof_C 	C 	0.916	0.7094	0.8641	-0.003
Mof_C 	C 	0.7094	0.7934	0.1359	0.002
Mof_C 	C 	0.1726	0.4374	0.6539	0.002
Mof_C 	C 	0.5105	0.75525	0.5892	0.108
Mof_C 	C 	0.659	0.279	0.5022	0.38
Mof_C 	C 	0.6304	0.8632	0.7402	-0.019
Mof_C 	C 	0.672	0.6785	0.3943	-0.164
Mof_C 	C 	0.376	0.644	0.474	-0.294
Mof_C 	C 	0.7188	0.1899	0.38964	-0.108
Mof_C 	C 	0.4117	0	0.6789	0.513
Mof_C 	C 	0.0938	0.7662	0.1769	-0.089
Mof_C 	C 	0.136	0.78	0.4761	-0.52
Mof_C 	C 	0.664	0.374	0.545	0.334
Mof_C 	C 	0.5463	0.5463	0.7654	2.199
Mof_C 	C 	0.2648	0.8274	0.6539	-0.001
Mof_C 	C 	2.47117e-17	0.5	0.7403	-1.765
Mof_C 	C 	0.4215	0.21075	0.6762	0.151
Mof_C 	C 	0.4543	0	0.8186	-1.749
Mof_C 	C 	0.721	0.341	0.4978	0.378
Mof_C 	C 	0.5457	0.5457	0.1814	-1.765
Mof_C 	C 	0.1447	0.3257	0.5606	2.881
Mof_C 	C 	0.4117	0	0.3211	0.513
Mof_C 	C 	0.7934	0.084	0.8641	0.001
Mof_C 	C 	0.376	0.2329	0.4912	0.416
Mof_C 	C 	0.7662	0.0938	0.8231	-0.082
Mof_C 	C 	0.2329	0.8569	0.5088	0.436
Mof_C 	C 	0.916	0.2066	0.1359	-0.005
Mof_C 	C 	0.29	0.626	0.455	0.335
Mof_C 	C 	0.624	0.268	0.474	-0.295
Mof_C 	C 	0.9062	0.2338	0.8231	-0.081
Mof_C 	C 	0.221	0.267	0.401	1.924
Mof_C 	C 	0.672	0.6785	0.6057	-0.164
Mof_C 	C 	0.1998	0.8693	0.7839	0.016
Mof_C 	C 	0.136	0.78	0.5239	-0.515
Mof_C 	C 	-2.24012e-17	0.5457	0.1814	-1.759
Mof_C 	C 	0.2648	0.4374	0.6539	0.001
Mof_C 	C 	0.5626	0.7352	0.6539	-0.004
Mof_C 	C 	0.864	0.22	0.5239	-0.584
Mof_C 	C 	0.21075	0.4215	0.3238	0.15
Mof_C 	C 	0.8538	0.3378	0.5855	0.462
Mof_C 	C 	0.8693	0.1998	0.2161	0.015
Mof_C 	C 	0.2648	0.8274	0.3461	-0.002
Mof_C 	C 	0.1387	0.2964	0.2142	-0.053
Mof_C 	C 	0.624	0.268	0.526	-0.295
Mof_C 	C 	0.1447	0.819	0.4394	2.605
Mof_C 	C 	0.2314	0.2314	0.4551	-3.397
Mof_C 	C 	0.5289	0.7188	0.38964	-0.106
Mof_C 	C 	0.733	0.779	0.599	1.635
Mof_C 	C 	0.1899	0.7188	0.61036	-0.107
Mof_C 	C 	0.2906	0.084	0.8641	-0.002
Mof_C 	C 	0.721	0.341	0.5022	0.378
Mof_C 	C 	0.3305	0.1307	0.7839	0.015
Mof_C 	C 	0.78	0.644	0.4761	-0.507
Mof_C 	C 	0.046	0.779	0.401	1.448
Mof_C 	C 	0.8613	0.1577	0.2142	-0.055
Mof_C 	C 	7.6479e-17	0.4117	0.3211	0.513
Mof_C 	C 	0.5626	0.7352	0.3461	-0.005
Mof_C 	C 	0.786	0.8843	0.0906	0.319
Mof_C 	C 	0.376	0.732	0.526	-0.294
Mof_C 	C 	0.2328	0.8632	0.2598	-0.017
Mof_C 	C 	0.221	0.954	0.599	2.071
Mof_C 	C 	0.4537	0.4537	0.7654	2.198
Mof_C 	C 	0.1157	0.9017	0.9094	0.302
Mof_C 	C 	0.268	0.624	0.526	-0.295
Mof_C 	C 	0.2906	0.084	0.1359	-0.002
Mof_C 	C 	0.1783	0.1783	0.5454	1.255
Mof_C 	C 	0.7662	0.0938	0.1769	-0.089
Mof_C 	C 	0.1577	0.2964	0.7858	-0.051
Mof_C 	C 	0.279	0.659	0.5022	0.38
Mof_C 	C 	0.1307	0.3305	0.7839	0.015
Mof_C 	C 	0.2314	-6.44661e-33	0.4551	-3.304
Mof_C 	C 	0.484	0.1462	0.4145	0.458
Mof_C 	C 	0.24475	0.4895	0.5892	0.116
Mof_C 	C 	0.7036	0.8423	0.2142	-0.056
Mof_C 	C 	2.16121e-17	0.4537	0.7654	2.194
Mof_C 	C 	0.7094	0.916	0.8641	-0.003
Mof_C 	C 	0.1462	0.6622	0.5855	0.457
Mof_C 	C 	0.1479	0.2594	0.8269	0.035
Mof_C 	C 	0.084	0.2906	0.8641	-0.002
Mof_C 	C 	0.1998	0.3305	0.2161	0.014
Mof_C 	C 	0.8521	0.1115	0.8269	0.038
Mof_C 	C 	0.864	0.22	0.4761	-0.581
Mof_C 	C 	0.732	0.356	0.474	-0.294
Mof_C 	C 	0.2906	0.2066	0.1359	-0.004
Mof_C 	C 	0.22	0.356	0.4761	-0.597
Mof_C 	C 	0.889	0.1455	0.8661	-0.078
Mof_C 	C 	0.1783	0	0.4546	1.226
Mof_C 	C 	0.111	0.2565	0.1339	-0.093
Mof_C 	C 	0.084	0.2906	0.1359	-0.002
Mof_C 	C 	0.1387	0.2964	0.7858	-0.051
Mof_C 	C 	0.9935	0.3215	0.6057	-0.22
Mof_C 	C 	0.5	0	0.8457	1.483
Mof_C 	C 	0.1577	0.8613	0.2142	-0.055
Mof_C 	C 	0.5457	0	0.1814	-1.759
Mof_C 	C 	0.6622	0.1462	0.5855	0.457
Mof_C 	C 	0.6724	0.7662	0.8231	-0.085
Mof_C 	C 	0.5883	0.5883	0.3211	0.529
Mof_C 	C 	0.6622	0.516	0.5855	0.456
Mof_C 	C 	0.659	0.38	0.4978	0.38
Mof_C 	C 	0.1514	1.28932e-32	0.5	-1.411
Mof_C 	C 	0.7671	0.1431	0.4912	0.241
Mof_C 	C 	3.22941e-17	0.5883	0.6789	0.515
Mof_C 	C 	0.4711	0.2812	0.38964	-0.101
Mof_C 	C 	0.732	0.73	0.321	-0.04
Mof_C 	C 	6.63176e-18	0.4543	0.1814	-1.758
Mof_C 	C 	0.1387	0.8423	0.7858	-0.052
Mof_C 	C 	0.7423	0.7423	0.5	1.688
Mof_C 	C 	0.6695	0.8002	0.7839	0.021
Mof_C 	C 	0.3276	0.2338	0.8231	-0.079
Mof_C 	C 	9.97836e-18	0.5	0.1543	1.48
Mof_C 	C 	0.78925	0.5785	0.3238	0.146
Mof_C 	C 	0.22	0.356	0.5239	-0.603
Mof_C 	C 	0.6785	0.672	0.6057	-0.164
Mof_C 	C 	1.89318e-17	0.5	0.3169	1.156
Mof_C 	C 	0.819	0.6743	0.5606	2.582
Mof_C 	C 	0.8486	0.8486	0.5	-1.153
Mof_C 	C 	0.5463	0	0.7654	2.195
Mof_C 	C 	0.7406	0.8521	0.8269	0.038
Mof_C 	C 	0.3696	0.1368	0.7402	-0.016
Mof_C 	C 	0.3215	0.9935	0.3943	-0.219
Mof_C 	C 	0.2066	0.916	0.8641	-0.006
Mof_C 	C 	0.9935	0.3215	0.3943	-0.219
Mof_C 	C 	0.084	0.7934	0.1359	0.001
Mof_C 	C 	0.732	0.002	0.321	-0.076
Mof_C 	C 	0.998	0.73	0.321	-0.004
Mof_C 	C 	0.3215	0.328	0.6057	-0.203
Mof_C 	C 	0.644	0.78	0.5239	-0.502
Mof_C 	C 	0.3157	1.28932e-32	0.5	0.583
Mof_C 	C 	0.4895	0.24475	0.4108	0.115
Mof_C 	C 	0.73	0.732	0.679	-0.04
Mof_C 	C 	0.341	0.721	0.4978	0.378
Mof_C 	C 	0.916	0.7094	0.1359	-0.003
Mof_C 	C 	0.268	0.644	0.474	-0.294
Mof_C 	C 	1.92709e-18	0.1783	0.4546	1.226
Mof_C 	C 	0.22	0.864	0.5239	-0.584
Mof_C 	C 	0.7352	0.1726	0.6539	0.001
Mof_C 	C 	1.50424e-17	0.5457	0.8186	-1.749
Mof_C 	C 	0.7435	0.889	0.8661	-0.082
Mof_C 	C 	0.9062	0.6724	0.1769	-0.091
Mof_C 	C 	0.5	0.5	0.8457	1.485
Mof_C 	C 	0.5	0	0.1543	1.48
Mof_C 	C 	0.7435	0.8545	0.8661	-0.088
Mof_C 	C 	0.2565	0.111	0.1339	-0.093
Mof_C 	C 	0.9017	0.786	0.9094	0.304
Mof_C 	C 	0.136	0.356	0.4761	-0.562
Mof_C 	C 	0.111	0.8545	0.1339	-0.098
Mof_C 	C 	0.1455	0.889	0.1339	-0.088
Mof_C 	C 	0.8545	0.7435	0.8661	-0.088
Mof_C 	C 	0.624	0.356	0.526	-0.295
Mof_C 	C 	0.2565	0.111	0.8661	-0.082
Mof_C 	C 	0.7094	0.7934	0.8641	0.002
Mof_C 	C 	0.181	0.3257	0.4394	3.172
Mof_C 	C 	0.7406	0.8885	0.8269	0.04
Mof_C 	C 	0.516	0.8538	0.5855	0.46
Mof_C 	C 	0.8569	0.624	0.5088	0.361
Mof_C 	C 	0.2338	0.3276	0.8231	-0.079
Mof_C 	C 	0.7435	0.8545	0.1339	-0.098
Mof_C 	C 	0.29	0.664	0.455	0.335
Mof_C 	C 	0.38	0.721	0.5022	0.38
Mof_C 	C 	0.214	0.1157	0.9094	0.299
Mof_C 	C 	4.07288e-17	0.5	0.8457	1.483
Mof_C 	C 	0.71	0.374	0.455	0.334
Mof_C 	C 	0.7036	0.8423	0.7858	-0.054
Mof_C 	C 	0.0938	0.7662	0.8231	-0.082
Mof_C 	C 	0.5626	0.8274	0.3461	-0.004
Mof_C 	C 	0.1387	0.8423	0.2142	-0.054
Mof_C 	C 	0.624	0.8569	0.5088	0.361
Mof_C 	C 	0.8538	0.516	0.4145	0.46
Mof_C 	C 	0.7662	0.6724	0.1769	-0.092
Mof_C 	C 	0.0065	0.328	0.6057	-0.177
Mof_C 	C 	0.4895	0.24475	0.5892	0.116
Mof_C 	C 	0.268	0.27	0.679	-0.037
Mof_C 	C 	0.374	0.664	0.545	0.334
Mof_C 	C 	0.5	0.5	0.3169	1.155
Mof_C 	C 	0.8101	0.2812	0.61036	-0.103
Mof_C 	C 	0.2338	0.9062	0.1769	-0.088
Mof_C 	C 	0.356	0.136	0.5239	-0.564
Mof_C 	C 	0.2812	0.8101	0.61036	-0.103
Mof_C 	C 	0.181	0.3257	0.5606	3.174
Mof_C 	C 	4.88418e-17	0.7686	0.5449	-3.004
Mof_C 	C 	0.516	0.8538	0.4145	0.46
Mof_C 	C 	0.7671	0.624	0.4912	0.278
Mof_C 	C 	0.1431	0.376	0.5088	0.301
Mof_C 	C 	0.864	0.644	0.4761	-0.533
Mof_C 	C 	0.1577	0.8613	0.7858	-0.053
Mof_C 	C 	0.0065	0.328	0.3943	-0.175
Mof_C 	C 	0.624	0.7671	0.5088	0.28
Mof_C 	C 	0.3696	0.1368	0.2598	-0.015
Mof_C 	C 	0.5289	0.7188	0.61036	-0.105
Mof_C 	C 	0.626	0.336	0.455	0.335
Mof_C 	C 	0.111	0.2565	0.8661	-0.082
Mof_C 	C 	0.864	0.644	0.5239	-0.532
Mof_C 	C 	5.43866e-17	0.7423	0.5	1.829
Mof_C 	C 	0.2594	0.1115	0.1731	0.043
Mof_C 	C 	0.644	0.376	0.526	-0.294
Mof_C 	C 	0.5	0.5	0.6831	1.158
Mof_C 	C 	0.8521	0.7406	0.8269	0.038
Mof_C 	C 	0.6843	1.28932e-32	0.5	0.561
Mof_C 	C 	0.644	0.864	0.4761	-0.533
Mof_C 	C 	0.29	0.626	0.545	0.334
Mof_C 	C 	0.1115	0.8521	0.8269	0.038
Mof_C 	C 	0.7188	0.5289	0.38964	-0.106
Mof_C 	C 	0.267	0.046	0.599	1.563
Mof_C 	C 	0.954	0.733	0.401	1.898
Mof_C 	C 	0.341	0.62	0.4978	0.378
Mof_C 	C 	0.3257	0.1447	0.4394	2.879
Mof_C 	C 	0.721	0.38	0.5022	0.38
Mof_C 	C 	0.7686	0.7686	0.4551	-2.8
Mof_C 	C 	0.644	0.268	0.474	-0.294
Mof_C 	C 	0.484	0.3378	0.5855	0.459
Mof_C 	C 	0.889	0.7435	0.1339	-0.092
Mof_C 	C 	0.046	0.267	0.401	1.564
Mof_C 	C 	0.8885	0.7406	0.8269	0.04
Mof_C 	C 	0.8553	0.6743	0.5606	2.788
Mof_C 	C 	0.71	0.336	0.545	0.334
Mof_C 	C 	0.1899	0.7188	0.38964	-0.108
Mof_C 	C 	0.8101	0.5289	0.61036	-0.105
Mof_C 	C 	0.356	0.624	0.474	-0.295
Mof_C 	C 	0.1577	0.2964	0.2142	-0.053
Mof_C 	C 	0.7686	0.7686	0.5449	-2.803
Mof_C 	C 	0.1431	0.7671	0.4912	0.241
Mof_C 	C 	0.8101	0.5289	0.38964	-0.105
Mof_C 	C 	0.002	0.732	0.679	-0.078
Mof_C 	C 	0.954	0.221	0.599	2.071
Mof_C 	C 	0.998	0.73	0.679	-0.002
Mof_C 	C 	0.2565	0.1455	0.8661	-0.078
Mof_C 	C 	0.1455	0.2565	0.1339	-0.089
Mof_C 	C 	0.7423	1.28932e-32	0.5	1.829
Mof_C 	C 	0.2594	0.1479	0.8269	0.035
Mof_C 	C 	0.1368	0.3696	0.7402	-0.016
Mof_C 	C 	0.38	0.721	0.4978	0.38
Mof_C 	C 	0.659	0.38	0.5022	0.38
Mof_C 	C 	0.75525	0.24475	0.4108	0.113
Mof_C 	C 	0.3257	0.1447	0.5606	2.881
Mof_C 	C 	0.7934	0.084	0.1359	0.001
Mof_C 	C 	0.8521	0.7406	0.1731	0.044
Mof_C 	C 	0.5	0.5	0.2597	-1.775
Mof_C 	C 	0.374	0.71	0.545	0.334
Mof_C 	C 	0.2329	0.376	0.5088	0.414
Mof_C 	C 	0.8553	0.6743	0.4394	2.791
Mof_C 	C 	0.8002	0.1307	0.2161	0.016
Mof_C 	C 	0.1115	0.2594	0.1731	0.043
Mof_C 	C 	0.75525	0.5105	0.5892	0.108
Mof_C 	C 	0.7686	-6.44661e-33	0.4551	-3.004
Mof_C 	C 	0.1998	0.3305	0.7839	0.015
Mof_C 	C 	0.779	0.733	0.401	1.636
Mof_C 	C 	0.221	0.267	0.599	1.925
Mof_C 	C 	0.6695	0.8002	0.2161	0.019
Mof_C 	C 	0.2594	0.1479	0.1731	0.041
Mof_C 	C 	0.356	0.22	0.4761	-0.597
Mof_C 	C 	0.8002	0.1307	0.7839	0.018
Mof_C 	C 	0.1307	0.8002	0.2161	0.016
Mof_C 	C 	0.328	0.3215	0.3943	-0.203
Mof_C 	C 	0.5289	0.8101	0.61036	-0.105
Mof_C 	C 	0.8545	0.111	0.8661	-0.088
Mof_C 	C 	0.0065	0.6785	0.3943	-0.16
Mof_C 	C 	0.6743	0.819	0.4394	2.584
Mof_C 	C 	0.732	0.356	0.526	-0.294
Mof_C 	C 	0.6622	0.516	0.4145	0.455
Mof_C 	C 	0.7934	0.7094	0.1359	0.002
Mof_C 	C 	0.6743	0.8553	0.5606	2.788
Mof_C 	C 	2.16121e-17	0.5463	0.7654	2.195
Mof_C 	C 	-3.67939e-18	0.8486	0.5	-1.261
Mof_C 	C 	0.7188	0.1899	0.61036	-0.107
Mof_C 	C 	0.7672	0.6304	0.2598	-0.019
Mof_C 	C 	0.6724	0.9062	0.8231	-0.083
Mof_C 	C 	0.21075	0.4215	0.6762	0.151
Mof_C 	C 	0.62	0.279	0.4978	0.379
Mof_C 	C 	0.6304	0.8632	0.2598	-0.018
Mof_C 	C 	0.0983	0.8843	0.0906	0.317
Mof_C 	C 	0.8632	0.6304	0.2598	-0.018
Mof_C 	C 	0.779	0.046	0.401	1.448
Mof_C 	C 	0.3257	0.181	0.4394	3.172
Mof_C 	C 	1.97471e-17	0.1783	0.5454	1.225
Mof_C 	C 	0.2338	0.3276	0.1769	-0.087
Mof_C 	C 	0.268	0.644	0.526	-0.295
Mof_C 	C 	0.624	0.7671	0.4912	0.278
Mof_C 	C 	0.5105	0.75525	0.4108	0.108
Mof_C 	C 	0.664	0.374	0.455	0.335
Mof_C 	C 	0.8632	0.2328	0.2598	-0.017
Mof_C 	C 	0.268	0.27	0.321	-0.036
Mof_C 	C 	0.046	0.267	0.599	1.563
Mof_C 	C 	0.1479	0.2594	0.1731	0.041
Mof_C 	C 	0.1726	0.7352	0.3461	-0
Mof_C 	C 	0.1157	0.9017	0.0906	0.313
Mof_C 	C 	0.8843	0.0983	0.9094	0.306
Mof_C 	C 	0.0938	0.3276	0.8231	-0.078
Mof_C 	C 	0.3257	0.181	0.5606	3.174
Mof_C 	C 	0.356	0.22	0.5239	-0.603
Mof_C 	C 	0.2964	0.1577	0.2142	-0.053
Mof_C 	C 	0.267	0.221	0.401	1.924
Mof_C 	C 	0.2577	1.28932e-32	0.5	2.018
Mof_C 	C 	0.5626	0.8274	0.6539	-0.003
Mof_C 	C 	0.6724	0.9062	0.1769	-0.091
Mof_C 	C 	0.6743	0.8553	0.4394	2.791
Mof_C 	C 	0.8613	0.7036	0.2142	-0.056
Mof_C 	C 	0.664	0.29	0.455	0.335
Mof_C 	C 	0.6785	0.672	0.3943	-0.164
Mof_C 	C 	5.29237e-18	0.2314	0.5449	-3.3
Mof_C 	C 	0.2329	0.376	0.4912	0.416
Mof_C 	C 	0.267	0.221	0.599	1.925
Mof_C 	C 	0.1157	0.214	0.9094	0.299
Mof_C 	C 	0.644	0.376	0.474	-0.294
Mof_C 	C 	0.1447	0.3257	0.4394	2.879
Mof_C 	C 	0.9017	0.1157	0.0906	0.313
Mof_C 	C 	0.3378	0.8538	0.4145	0.462
Mof_C 	C 	0.2066	0.916	0.1359	-0.005
Mof_C 	C 	0.8538	0.3378	0.4145	0.462
Mof_C 	C 	0.21075	0.78925	0.3238	0.147
Mof_C 	C 	0.1431	0.7671	0.5088	0.243
Mof_C 	C 	0.5883	0	0.3211	0.515
Mof_C 	C 	0.268	0.998	0.679	0
Mof_C 	C 	0.2812	0.4711	0.61036	-0.1
Mof_C 	C 	0.5883	0.5883	0.6789	0.529
Mof_C 	C 	0.732	0.376	0.526	-0.294
Mof_C 	C 	0.3305	0.1998	0.2161	0.014
Mof_C 	C 	0.73	0.998	0.679	-0.002
Mof_C 	C 	0.4374	0.1726	0.3461	0.001
Mof_C 	C 	0.1115	0.2594	0.8269	0.037
Mof_C 	C 	0.78	0.644	0.5239	-0.502
Mof_C 	C 	0.62	0.341	0.4978	0.378
Mof_C 	C 	0.7662	0.6724	0.8231	-0.085
Mof_C 	C 	0.3276	0.0938	0.1769	-0.086
Mof_C 	C 	0.2338	0.9062	0.8231	-0.081
Mof_C 	C 	0.6843	0.6843	0.5	0.56
Mof_C 	C 	0.73	0.732	0.321	-0.04
Mof_C 	C 	0.6785	0.0065	0.6057	-0.161
Mof_C 	C 	0.9017	0.786	0.0906	0.315
Mof_C 	C 	0.6304	0.7672	0.2598	-0.019
Mof_C 	C 	0.376	0.1431	0.4912	0.302
Mof_C 	C 	0.672	0.9935	0.3943	-0.195
Mof_C 	C 	0.4711	0.1899	0.38964	-0.105
Mof_C 	C 	0.3305	0.1998	0.7839	0.015
Mof_C 	C 	0.341	0.62	0.5022	0.378
Mof_C 	C 	0.62	0.341	0.5022	0.378
Mof_C 	C 	0.27	0.002	0.321	-0.074
Mof_C 	C 	0.8545	0.111	0.1339	-0.098
Mof_C 	C 	0.5	-1.28932e-32	0.6831	1.158
Mof_C 	C 	0.73	0.998	0.321	-0.004
Mof_C 	C 	0.8538	0.516	0.5855	0.46
Mof_C 	C 	0.1307	0.3305	0.2161	0.014
Mof_C 	C 	0.2328	0.3696	0.7402	-0.017
Mof_C 	C 	0.279	0.659	0.4978	0.38
Mof_C 	C 	0.2314	1.28932e-32	0.5449	-3.3
Mof_C 	C 	0.376	0.1431	0.5088	0.301
Mof_C 	C 	0.8521	0.1115	0.1731	0.043
Mof_C 	C 	0.8217	0	0.5454	1.076
Mof_C 	C 	0.624	0.8569	0.4912	0.36
Mof_C 	C 	6.20615e-20	0.4537	0.2346	2.195
Mof_C 	C 	0.8613	0.1577	0.7858	-0.053
Mof_C 	C 	0.7672	0.1368	0.7402	-0.018
Mof_C 	C 	0.5463	-3.22331e-33	0.2346	2.196
Mof_C 	C 	0.8274	0.2648	0.3461	-0.002
Mof_C 	C 	0.38	0.659	0.4978	0.38
Mof_C 	C 	2.53536e-17	0.3157	0.5	0.583
Mof_C 	C 	7.6479e-17	0.5883	0.3211	0.515
Mof_C 	C 	0.779	0.046	0.599	1.446
Mof_C 	C 	0.2964	0.1387	0.2142	-0.053
Mof_C 	C 	0.8569	0.624	0.4912	0.36
Mof_C 	C 	0.328	0.3215	0.6057	-0.203
Mof_C 	C 	0.0065	0.6785	0.6057	-0.161
Mof_C 	C 	0.214	0.0983	0.0906	0.312
Mof_C 	C 	1.92709e-18	0.8217	0.4546	1.076
Mof_C 	C 	0.8002	0.6695	0.2161	0.019
Mof_C 	C 	0.659	0.279	0.4978	0.38
Mof_C 	C 	0.786	0.9017	0.9094	0.304
Mof_C 	C 	0.6695	0.8693	0.7839	0.018
Mof_C 	C 	5.99313e-17	0.7686	0.4551	-3.004
Mof_C 	C 	0.644	0.78	0.4761	-0.507
Mof_C 	C 	0.24475	0.75525	0.4108	0.113
Mof_C 	C 	0.5	0.5	0.7403	-1.772
Mof_C 	C 	0.2812	0.8101	0.38964	-0.103
Mof_C 	C 	0.1514	0.1514	0.5	-1.45
Mof_C 	C 	0.356	0.624	0.526	-0.295
Mof_C 	C 	0.8101	0.2812	0.38964	-0.103
Mof_C 	C 	0.356	0.136	0.4761	-0.562
Mof_C 	C 	0.71	0.336	0.455	0.334
Mof_C 	C 	0.1115	0.8521	0.1731	0.043
Mof_C 	C 	0.181	0.8553	0.4394	3.104
Mof_C 	C 	0.9935	0.672	0.3943	-0.195
Mof_C 	C 	0.8693	0.1998	0.7839	0.016
Mof_C 	C 	0.2314	0.2314	0.5449	-3.395
Mof_C 	C 	0.2328	0.3696	0.2598	-0.016
Mof_C 	C 	0.1899	0.4711	0.61036	-0.105
Mof_C 	C 	0.8843	0.0983	0.0906	0.317
Mof_C 	C 	0.5457	0.5457	0.8186	-1.755
Mof_C 	C 	0.2594	0.1115	0.8269	0.037
Mof_C 	C 	0.374	0.71	0.455	0.334
Mof_C 	C 	0.5	-6.44661e-33	0.3169	1.156
Mof_C 	C 	0.624	0.356	0.474	-0.295
Mof_C 	C 	0.1726	0.7352	0.6539	0.001
Mof_C 	C 	0.8843	0.786	0.9094	0.308
Mof_C 	C 	0.8274	0.5626	0.3461	-0.004
Mof_C 	C 	0.954	0.733	0.599	1.899
Mof_C 	C 	0.181	0.8553	0.5606	3.103
Mof_C 	C 	0.336	0.71	0.545	0.334
Mof_C 	C 	0.8274	0.2648	0.6539	-0.001
Mof_C 	C 	0.3378	0.484	0.5855	0.459
Mof_C 	C 	-3.03755e-18	0.5	0.2597	-1.769
Mof_C 	C 	0.819	0.1447	0.5606	2.605
Mof_C 	C 	0.3378	0.484	0.4145	0.458
Mof_C 	C 	0.5463	0.5463	0.2346	2.2
Mof_C 	C 	0.62	0.279	0.5022	0.379
Mof_C 	C 	0.0938	0.3276	0.1769	-0.086
Mof_C 	C 	0.002	0.732	0.321	-0.076
Mof_C 	C 	0.4543	0.4543	0.1814	-1.764
Mof_C 	C 	-2.89709e-17	0.5463	0.2346	2.196
Mof_C 	C 	0.4537	0.4537	0.2346	2.199
Mof_C 	C 	-3.67939e-18	0.6843	0.5	0.561
Mof_C 	C 	0.78	0.136	0.4761	-0.52
Mof_C 	C 	0.721	0.38	0.4978	0.38
Mof_C 	C 	0.24475	0.4895	0.4108	0.115
Mof_C 	C 	0.8613	0.7036	0.7858	-0.054
Mof_C 	C 	0.4537	0	0.7654	2.194
Mof_C 	C 	0.0983	0.214	0.9094	0.3
Mof_C 	C 	0.954	0.221	0.401	2.069
Mof_C 	C 	0.374	0.664	0.455	0.335
Mof_C 	C 	0.6724	0.7662	0.1769	-0.092
Mof_C 	C 	0.1726	0.4374	0.3461	0.001
Mof_C 	C 	0.819	0.1447	0.4394	2.605
Mof_C 	C 	0.3215	0.9935	0.6057	-0.22
Mof_C 	C 	0.7671	0.624	0.5088	0.28
Mof_C 	C 	0.7036	0.8613	0.2142	-0.056
Mof_C 	C 	0.336	0.71	0.455	0.334
Mof_C 	C 	0.516	0.6622	0.5855	0.456
Mof_C 	C 	0.4374	0.1726	0.6539	0.002
Mof_C 	C 	0.341	0.721	0.5022	0.378
Mof_C 	C 	0.8423	0.7036	0.2142	-0.056
Mof_C 	C 	-1.39905e-17	0.4543	0.8186	-1.749
Mof_C 	C 	0.8423	0.1387	0.7858	-0.052
Mof_C 	C 	0.3157	0.3157	0.5	0.604
Mof_C 	C 	0.732	0.73	0.679	-0.04
Mof_C 	C 	0.484	0.3378	0.4145	0.458
Mof_C 	C 	0.2329	0.8569	0.4912	0.437
Mof_C 	C 	0.78925	0.21075	0.3238	0.147
Mof_C 	C 	0.29	0.664	0.545	0.334
Mof_C 	C 	0.336	0.626	0.455	0.335
Mof_C 	C 	0.8693	0.6695	0.2161	0.017
Mof_C 	C 	0.136	0.356	0.5239	-0.564
Mof_C 	C 	0.998	0.268	0.321	-0.002
Mof_C 	C 	0.7672	0.6304	0.7402	-0.02
Mof_C 	C 	0.4543	0.4543	0.8186	-1.755
Mof_C 	C 	0.733	0.954	0.401	1.898
Mof_C 	C 	0.2328	0.8632	0.7402	-0.018
Mof_C 	C 	0.8217	0.8217	0.5454	0.956
Mof_C 	C 	0.27	0.002	0.679	-0.076
Mof_C 	C 	0.8423	0.1387	0.2142	-0.054
Mof_C 	C 	0.2964	0.1577	0.7858	-0.051
Mof_C 	C 	0.626	0.29	0.455	0.335
Mof_C 	C 	0.7672	0.1368	0.2598	-0.016
Mof_C 	C 	0.4374	0.2648	0.3461	-0
Mof_C 	C 	0.4537	-3.22331e-33	0.2346	2.195
Mof_C 	C 	0.7435	0.889	0.1339	-0.092
Mof_C 	C 	0.8885	0.1479	0.8269	0.038
Mof_C 	C 	0.732	0.376	0.474	-0.294
Mof_C 	C 	0.046	0.779	0.599	1.446
Mof_C 	C 	0.8553	0.181	0.4394	3.104
Mof_C 	C 	0.8632	0.2328	0.7402	-0.018
Mof_C 	C 	0.78925	0.21075	0.6762	0.148
Mof_C 	C 	0.336	0.626	0.545	0.334
Mof_C 	C 	0.5	0.5	0.1543	1.482
Mof_C 	C 	0.4543	0	0.1814	-1.758
Mof_C 	C 	0.38	0.659	0.5022	0.38
Mof_C 	C 	0.1455	0.889	0.8661	-0.078
Mof_C 	C 	0.1783	0.1783	0.4546	1.256
Mof_C 	C 	0.1998	0.8693	0.2161	0.015
Mof_C 	C 	0.1307	0.8002	0.7839	0.018
Mof_C 	C 	0.7934	0.7094	0.8641	0.002
Mof_C 	C 	0.8274	0.5626	0.6539	-0.003
Mof_C 	C 	0.75525	0.24475	0.5892	0.113
Mof_C 	C 	0.78	0.136	0.5239	-0.515
Mof_C 	C 	0.78925	0.5785	0.6762	0.147
Mof_C 	C 	0.24475	0.75525	0.5892	0.113
Mof_C 	C 	0.5	0	0.7403	-1.765
Mof_C 	C 	0.644	0.864	0.5239	-0.532
Mof_C 	C 	0.1368	0.7672	0.7402	-0.018
Mof_C 	C 	0.2066	0.2906	0.8641	-0.005
Mof_C 	C 	0.2648	0.4374	0.3461	-0
Mof_C 	C 	0.27	0.268	0.321	-0.036
Mof_C 	C 	0.279	0.62	0.4978	0.379
Mof_C 	C 	0.819	0.6743	0.4394	2.584
Mof_C 	C 	0.8217	0	0.4546	1.076
Mof_C 	C 	3.17754e-17	0.5	0.6831	1.158
Mof_C 	C 	1.08371e-17	0.1514	0.5	-1.411
Mof_C 	C 	0.7352	0.5626	0.3461	-0.005
Mof_C 	C 	0.084	0.7934	0.8641	0.001
Mof_C 	C 	0.1157	0.214	0.0906	0.311
Mof_C 	C 	0.2565	0.1455	0.1339	-0.089
Mof_C 	C 	0.672	0.9935	0.6057	-0.196
Mof_C 	C 	0.22	0.864	0.4761	-0.581
Mof_C 	C 	0.8553	0.181	0.5606	3.103
Mof_C 	C 	0.9017	0.1157	0.9094	0.302
Mof_C 	C 	0.2906	0.2066	0.8641	-0.005
Mof_C 	C 	0.7686	1.28932e-32	0.5449	-3.004
Mof_C 	C 	0.626	0.336	0.545	0.334
Mof_C 	C 	0.5457	0	0.8186	-1.749
Mof_C 	C 	0.786	0.9017	0.0906	0.315
Mof_C 	C 	0.8569	0.2329	0.5088	0.436
Mof_C 	C 	0.221	0.954	0.401	2.069
Mof_C 	C 	0.4215	0.21075	0.3238	0.15
Mof_C 	C 	0.111	0.8545	0.8661	-0.088
Mof_C 	C 	0.8885	0.7406	0.1731	0.046
Mof_C 	C 	0.1431	0.376	0.4912	0.302
Mof_C 	C 	0.733	0.779	0.401	1.636
Mof_C 	C 	0.6785	0.0065	0.3943	-0.16
Mof_C 	C 	0.75525	0.5105	0.4108	0.108
Mof_C 	C 	0.4117	0.4117	0.6789	0.523
Mof_C 	C 	0.1462	0.484	0.5855	0.458
Mof_C 	C 	0.8545	0.7435	0.1339	-0.098
Mof_C 	C 	0.733	0.954	0.599	1.899
Mof_C 	C 	0.27	0.268	0.679	-0.037
Mof_C 	C 	0.1479	0.8885	0.1731	0.044
Mof_C 	C 	0.7094	0.916	0.1359	-0.003
Mof_C 	C 	0.376	0.732	0.474	-0.294
Mof_C 	C 	0.3378	0.8538	0.5855	0.462
Mof_C 	C 	0.6304	0.7672	0.7402	-0.02
Mof_C 	C 	0.4711	0.1899	0.61036	-0.105
Mof_C 	C 	0.3215	0.328	0.3943	-0.203
Mof_C 	C 	0.5	6.44661e-33	0.2597	-1.769
Mof_C 	C 	0.664	0.29	0.545	0.334
Mof_C 	C 	0.2964	0.1387	0.7858	-0.051
Mof_C 	C 	0.516	0.6622	0.4145	0.455
Mof_C 	C 	0.9062	0.6724	0.8231	-0.083
Mof_C 	C 	0.6695	0.8693	0.2161	0.017
Mof_C 	C 	0.1899	0.4711	0.38964	-0.105
Mof_C 	C 	-9.28587e-18	0.8217	0.5454	1.076
Mof_C 	C 	0.9935	0.672	0.6057	-0.196
Mof_C 	C 	0.279	0.62	0.5022	0.379
Mof_C 	C 	0.889	0.7435	0.8661	-0.082
Mof_C 	C 	0.8632	0.6304	0.7402	-0.019
Mof_C 	C 	0.732	0.002	0.679	-0.078
Mof_C 	C 	0.214	0.0983	0.9094	0.3
Mof_C 	C 	0.4117	0.4117	0.3211	0.523
Mof_C 	C 	0.1368	0.7672	0.2598	-0.016
Mof_C 	C 	0.5785	0.78925	0.3238	0.146
Mof_C 	C 	0.8693	0.6695	0.7839	0.018
Mof_C 	C 	0.5785	0.78925	0.6762	0.147
Mof_C 	C 	0.4711	0.2812	0.61036	-0.1
Mof_C 	C 	0.0983	0.8843	0.9094	0.306
Mof_C 	C 	0.5883	0	0.6789	0.515
Mof_C 	C 	0.268	0.624	0.474	-0.295
Mof_C 	C 	0.916	0.2066	0.8641	-0.006
Mof_C 	C 	0.779	0.733	0.599	1.635
Mof_C 	C 	0.9062	0.2338	0.1769	-0.088
Mof_C 	C 	0.7406	0.8521	0.1731	0.044
Mof_C 	C 	0.71	0.374	0.545	0.334
Mof_C 	C 	0.786	0.8843	0.9094	0.308
Mof_C 	C 	0.2577	0.2577	0.5	2.065
Mof_C 	C 	0.356	0.732	0.526	-0.294
Mof_C 	C 	0.356	0.732	0.474	-0.294
Mof_C 	C 	0.6743	0.819	0.5606	2.582
Mof_C 	C 	0.1462	0.484	0.4145	0.458
Mof_C 	C 	0.7406	0.8885	0.1731	0.046
Mof_C 	C 	0.6622	0.1462	0.4145	0.457
Mof_C 	C 	1.08371e-17	0.2577	0.5	2.018
Mof_C 	C 	0.002	0.27	0.679	-0.076
Mof_C 	C 	0.7188	0.5289	0.61036	-0.105
Mof_C 	C 	0.21075	0.78925	0.6762	0.148
Mof_N 	N 	0.8196	0.6494	0.5174	0.001
Mof_N 	N 	0.329	0.6727	0.4784	-0.106
Mof_N 	N 	0.989	0.276	0.3737	-0.821
Mof_N 	N 	0.713	0.724	0.6263	-0.234
Mof_N 	N 	0.724	0.011	0.6263	0.303
Mof_N 	N 	0.011	0.724	0.3737	0.295
Mof_N 	N 	0.3437	0.6727	0.4784	-0.106
Mof_N 	N 	0.3437	0.6727	0.5216	-0.106
Mof_N 	N 	0.724	0.713	0.6263	-0.234
Mof_N 	N 	0.1702	0.8196	0.5174	0.004
Mof_N 	N 	0.8298	0.1804	0.5174	0.003
Mof_N 	N 	0.671	0.3437	0.4784	-0.106
Mof_N 	N 	0.3506	0.1804	0.5174	0.007
Mof_N 	N 	0.6494	0.8298	0.5174	-0
Mof_N 	N 	0.671	0.3273	0.5216	-0.105
Mof_N 	N 	0.3506	0.1702	0.5174	0.008
Mof_N 	N 	0.3273	0.6563	0.4784	-0.105
Mof_N 	N 	0.3273	0.671	0.5216	-0.105
Mof_N 	N 	0.989	0.713	0.6263	-0.777
Mof_N 	N 	0.329	0.6563	0.4784	-0.105
Mof_N 	N 	0.713	0.989	0.6263	-0.777
Mof_N 	N 	0.329	0.6563	0.5216	-0.105
Mof_N 	N 	0.276	0.287	0.6263	-0.256
Mof_N 	N 	0.1804	0.8298	0.5174	0.003
Mof_N 	N 	0.3273	0.671	0.4784	-0.105
Mof_N 	N 	0.6563	0.329	0.4784	-0.105
Mof_N 	N 	0.8196	0.1702	0.5174	0.004
Mof_N 	N 	0.3437	0.671	0.4784	-0.106
Mof_N 	N 	0.671	0.3437	0.5216	-0.106
Mof_N 	N 	0.671	0.3273	0.4784	-0.105
Mof_N 	N 	0.6727	0.3437	0.4784	-0.106
Mof_N 	N 	0.287	0.276	0.3737	-0.256
Mof_N 	N 	0.3506	0.1702	0.4826	0.006
Mof_N 	N 	0.3273	0.6563	0.5216	-0.105
Mof_N 	N 	0.6494	0.8196	0.5174	0.001
Mof_N 	N 	0.6494	0.8196	0.4826	0.001
Mof_N 	N 	0.011	0.287	0.6263	0.335
Mof_N 	N 	0.6563	0.3273	0.5216	-0.105
Mof_N 	N 	0.011	0.287	0.3737	0.325
Mof_N 	N 	0.011	0.724	0.6263	0.303
Mof_N 	N 	0.6563	0.329	0.5216	-0.105
Mof_N 	N 	0.8298	0.6494	0.4826	0.001
Mof_N 	N 	0.989	0.276	0.6263	-0.831
Mof_N 	N 	0.1804	0.3506	0.5174	0.007
Mof_N 	N 	0.1804	0.8298	0.4826	0.004
Mof_N 	N 	0.6563	0.3273	0.4784	-0.105
Mof_N 	N 	0.276	0.989	0.3737	-0.821
Mof_N 	N 	0.1702	0.3506	0.5174	0.008
Mof_N 	N 	0.276	0.989	0.6263	-0.831
Mof_N 	N 	0.3437	0.671	0.5216	-0.106
Mof_N 	N 	0.287	0.011	0.6263	0.335
Mof_N 	N 	0.6727	0.329	0.4784	-0.106
Mof_N 	N 	0.6727	0.3437	0.5216	-0.106
Mof_N 	N 	0.287	0.276	0.6263	-0.256
Mof_N 	N 	0.1702	0.8196	0.4826	0.003
Mof_N 	N 	0.724	0.713	0.3737	-0.235
Mof_N 	N 	0.1702	0.3506	0.4826	0.006
Mof_N 	N 	0.1804	0.3506	0.4826	0.007
Mof_N 	N 	0.6494	0.8298	0.4826	0.001
Mof_N 	N 	0.724	0.011	0.3737	0.295
Mof_N 	N 	0.8196	0.6494	0.4826	0.001
Mof_N 	N 	0.8298	0.1804	0.4826	0.004
Mof_N 	N 	0.8298	0.6494	0.5174	-0
Mof_N 	N 	0.713	0.989	0.3737	-0.769
Mof_N 	N 	0.713	0.724	0.3737	-0.235
Mof_N 	N 	0.287	0.011	0.3737	0.325
Mof_N 	N 	0.276	0.287	0.3737	-0.256
Mof_N 	N 	0.6727	0.329	0.5216	-0.106
Mof_N 	N 	0.329	0.6727	0.5216	-0.106
Mof_N 	N 	0.989	0.713	0.3737	-0.769
Mof_N 	N 	0.3506	0.1804	0.4826	0.007
Mof_N 	N 	0.8196	0.1702	0.4826	0.003
Mof_O 	O 	0.5426	0	0.3385	-0.785
Mof_O 	O 	0.54213	0.59665	0.5	-0.57
Mof_O 	O 	0.52726	0.05452	0.43257	-0.579
Mof_O 	O 	0.8807	0.9491	-0	-0.259
Mof_O 	O 	0.8807	0.8202	0.9061	-0.272
Mof_O 	O 	0.05452	0.52726	0.56743	-0.579
Mof_O 	O 	0.216	0.9075	0.5711	4.263
Mof_O 	O 	0.374	0.765	0.492	0.748
Mof_O 	O 	0.05452	0.59665	0.5	-0.572
Mof_O 	O 	0.0925	0.3085	0.4289	4.632
Mof_O 	O 	0.1193	0.0509	-0	-0.267
Mof_O 	O 	0.1798	0.0605	0.9061	-0.26
Mof_O 	O 	0.16546	0.63906	0.44574	-0.502
Mof_O 	O 	0.391	0.626	0.492	0.746
Mof_O 	O 	0.1798	0.1193	0.9061	-0.263
Mof_O 	O 	0.338	0	0.46	-1.325
Mof_O 	O 	0.9395	0.1193	0.9061	-0.272
Mof_O 	O 	0.0659	0.2161	0.9441	-0.326
Mof_O 	O 	0.94548	0.54213	0.5	-0.583
Mof_O 	O 	0.5488	0.6424	0.5979	-0.47
Mof_O 	O 	0.784	0.0925	0.4289	4.363
Mof_O 	O 	4.21166e-18	0.3418	0.4361	0.936
Mof_O 	O 	0.9341	0.1502	0.9441	-0.336
Mof_O 	O 	0.662	0.662	0.54	-1.192
Mof_O 	O 	0.4736	0.63906	0.55426	-0.5
Mof_O 	O 	0.235	0.626	0.508	0.747
Mof_O 	O 	0.8202	0.9395	0.9061	-0.275
Mof_O 	O 	0.6915	0.784	0.5711	4.057
Mof_O 	O 	0.1193	0.9395	0.0939	-0.284
Mof_O 	O 	5.93262e-17	0.662	0.46	-1.232
Mof_O 	O 	0.80605	0.19395	0.7196	-0.199
Mof_O 	O 	0.3085	0.0925	0.5711	4.636
Mof_O 	O 	0.0936	0.6424	0.4021	-0.477
Mof_O 	O 	0.784	0.0925	0.5711	4.366
Mof_O 	O 	0.8807	0.0605	0.0939	-0.277
Mof_O 	O 	0.1502	0.2161	0.9441	-0.326
Mof_O 	O 	0.374	0.609	0.492	0.747
Mof_O 	O 	0.8807	0.8202	0.0939	-0.283
Mof_O 	O 	0.5659	0.5659	0.6538	0.007
Mof_O 	O 	0.1502	0.9341	0.0559	-0.386
Mof_O 	O 	0.3504	0	0.6372	0.306
Mof_O 	O 	0.1193	0.0684	-0	-0.284
Mof_O 	O 	0.8498	0.7839	0.0559	-0.38
Mof_O 	O 	0.3085	0.0925	0.4289	4.632
Mof_O 	O 	0.40335	0.45787	0.5	-0.565
Mof_O 	O 	0.3504	0.3504	0.3628	0.346
Mof_O 	O 	0.6496	0.6496	0.3628	0.348
Mof_O 	O 	0.8498	0.0659	0.9441	-0.329
Mof_O 	O 	0.47274	0.52726	0.56743	-0.577
Mof_O 	O 	0.5488	0.9064	0.4021	-0.48
Mof_O 	O 	6.36072e-18	0.4341	0.6538	0.02
Mof_O 	O 	0.626	0.235	0.508	0.747
Mof_O 	O 	0.6582	0.6582	0.4361	0.79
Mof_O 	O 	0.4512	0.0936	0.4021	-0.478
Mof_O 	O 	0.626	0.391	0.492	0.746
Mof_O 	O 	0.391	0.765	0.492	0.747
Mof_O 	O 	0.2161	0.0659	0.0559	-0.378
Mof_O 	O 	0.19395	0.80605	0.2804	-0.201
Mof_O 	O 	0.83454	0.4736	0.44574	-0.502
Mof_O 	O 	8.41066e-18	0.3504	0.6372	0.306
Mof_O 	O 	0.1193	0.1798	0.0939	-0.276
Mof_O 	O 	0.36094	0.83454	0.44574	-0.501
Mof_O 	O 	0.784	0.6915	0.5711	4.057
Mof_O 	O 	0.5659	0.5659	0.3462	0.004
Mof_O 	O 	0.3879	0.19395	0.2804	-0.201
Mof_O 	O 	0.0605	0.1798	0.9061	-0.26
Mof_O 	O 	0.0936	0.4512	0.4021	-0.478
Mof_O 	O 	0.1502	0.9341	0.9441	-0.336
Mof_O 	O 	0.0509	0.1193	-0	-0.267
Mof_O 	O 	0.662	0	0.54	-1.236
Mof_O 	O 	3.51097e-17	0.3697	0.6561	-0.702
Mof_O 	O 	0.9064	0.5488	0.5979	-0.48
Mof_O 	O 	0.4736	0.83454	0.55426	-0.501
Mof_O 	O 	4.52973e-17	0.4574	0.3385	-0.789
Mof_O 	O 	0.626	0.391	0.508	0.747
Mof_O 	O 	0.6303	0.6303	0.3439	-0.732
Mof_O 	O 	0.9064	0.3576	0.4021	-0.48
Mof_O 	O 	0.6582	6.44661e-33	0.4361	0.84
Mof_O 	O 	0.8807	0.0605	0.9061	-0.265
Mof_O 	O 	0.235	0.609	0.492	0.747
Mof_O 	O 	0.662	0.662	0.46	-1.192
Mof_O 	O 	0.5426	0.5426	0.3385	-0.784
Mof_O 	O 	0.40335	0.94548	0.5	-0.58
Mof_O 	O 	0.5426	1.28932e-32	0.6615	-0.787
Mof_O 	O 	0.374	0.609	0.508	0.747
Mof_O 	O 	0.63906	0.4736	0.44574	-0.5
Mof_O 	O 	0.3576	0.4512	0.5979	-0.471
Mof_O 	O 	0.3085	0.216	0.4289	4.575
Mof_O 	O 	0.9075	0.6915	0.4289	4.019
Mof_O 	O 	0.0605	0.8807	0.9061	-0.265
Mof_O 	O 	0.9341	0.1502	0.0559	-0.386
Mof_O 	O 	0.3418	0	0.5639	0.94
Mof_O 	O 	0.338	0.338	0.54	-1.378
Mof_O 	O 	0.4341	0	0.3462	0.018
Mof_O 	O 	7.43303e-17	0.5426	0.3385	-0.785
Mof_O 	O 	0.1193	0.9395	0.9061	-0.272
Mof_O 	O 	0.609	0.235	0.508	0.747
Mof_O 	O 	0.4736	0.83454	0.44574	-0.502
Mof_O 	O 	0.216	0.9075	0.4289	4.268
Mof_O 	O 	0.6424	0.5488	0.5979	-0.47
Mof_O 	O 	0.609	0.374	0.492	0.747
Mof_O 	O 	0.7839	0.8498	0.9441	-0.33
Mof_O 	O 	0.59665	0.54213	0.5	-0.57
Mof_O 	O 	0.83454	0.36094	0.55426	-0.501
Mof_O 	O 	0.54213	0.94548	0.5	-0.583
Mof_O 	O 	0.3576	0.9064	0.4021	-0.48
Mof_O 	O 	0.1798	0.0605	0.0939	-0.273
Mof_O 	O 	-2.26723e-17	0.5659	0.6538	0.014
Mof_O 	O 	0.80605	0.6121	0.7196	-0.199
Mof_O 	O 	0.4512	0.3576	0.5979	-0.471
Mof_O 	O 	0.8202	0.8807	0.9061	-0.272
Mof_O 	O 	0.83454	0.36094	0.44574	-0.501
Mof_O 	O 	0.8807	0.9316	-0	-0.306
Mof_O 	O 	0.63906	0.16546	0.55426	-0.501
Mof_O 	O 	0.9075	0.216	0.5711	4.263
Mof_O 	O 	0.235	0.626	0.492	0.747
Mof_O 	O 	0.9075	0.216	0.4289	4.268
Mof_O 	O 	0.609	0.235	0.492	0.747
Mof_O 	O 	0.63906	0.4736	0.55426	-0.5
Mof_O 	O 	0.4574	0.4574	0.3385	-0.795
Mof_O 	O 	3.51097e-17	0.6303	0.6561	-0.699
Mof_O 	O 	0.6424	0.0936	0.4021	-0.477
Mof_O 	O 	0.6303	0.6303	0.6561	-0.732
Mof_O 	O 	1.74625e-17	0.3418	0.5639	0.94
Mof_O 	O 	0.374	0.765	0.508	0.747
Mof_O 	O 	0.0605	0.8807	0.0939	-0.277
Mof_O 	O 	0.3418	0.3418	0.5639	0.982
Mof_O 	O 	0.9064	0.3576	0.5979	-0.48
Mof_O 	O 	0.5488	0.6424	0.4021	-0.47
Mof_O 	O 	0.5426	0.5426	0.6615	-0.786
Mof_O 	O 	0.9075	0.6915	0.5711	4.015
Mof_O 	O 	0.216	0.3085	0.5711	4.576
Mof_O 	O 	0.5264	0.36094	0.44574	-0.5
Mof_O 	O 	0.4574	1.28932e-32	0.6615	-0.792
Mof_O 	O 	0.80605	0.19395	0.2804	-0.201
Mof_O 	O 	0.2161	0.0659	0.9441	-0.326
Mof_O 	O 	0.3697	0	0.3439	-0.703
Mof_O 	O 	0.6496	0	0.3628	0.309
Mof_O 	O 	0.0509	0.9316	-0	-0.296
Mof_O 	O 	0.0925	0.784	0.4289	4.363
Mof_O 	O 	0.5659	0	0.6538	0.014
Mof_O 	O 	4.43464e-17	0.4341	0.3462	0.018
Mof_O 	O 	0.235	0.609	0.508	0.747
Mof_O 	O 	0.5488	0.9064	0.5979	-0.48
Mof_O 	O 	0.9395	0.8202	0.0939	-0.286
Mof_O 	O 	5.40984e-18	0.4574	0.6615	-0.792
Mof_O 	O 	0.2161	0.1502	0.9441	-0.326
Mof_O 	O 	0.5659	0	0.3462	0.011
Mof_O 	O 	0.4341	0.4341	0.6538	0.022
Mof_O 	O 	0.3697	0.3697	0.3439	-0.738
Mof_O 	O 	0.3504	0	0.3628	0.307
Mof_O 	O 	0.05452	0.45787	0.5	-0.57
Mof_O 	O 	4.94469e-17	0.662	0.54	-1.236
Mof_O 	O 	0.36094	0.5264	0.55426	-0.499
Mof_O 	O 	0.94548	0.47274	0.43257	-0.592
Mof_O 	O 	0.9491	0.8807	-0	-0.259
Mof_O 	O 	0.47274	0.94548	0.43257	-0.592
Mof_O 	O 	0.19395	0.80605	0.7196	-0.199
Mof_O 	O 	0.0936	0.4512	0.5979	-0.477
Mof_O 	O 	0.4341	0.4341	0.3462	0.02
Mof_O 	O 	0.3504	0.3504	0.6372	0.346
Mof_O 	O 	0.6496	0.6496	0.6372	0.348
Mof_O 	O 	0.0659	0.2161	0.0559	-0.378
Mof_O 	O 	0.52726	0.47274	0.43257	-0.577
Mof_O 	O 	0.9316	0.8807	-0	-0.306
Mof_O 	O 	0.5264	0.16546	0.55426	-0.501
Mof_O 	O 	0.8202	0.9395	0.0939	-0.286
Mof_O 	O 	0.6121	0.80605	0.7196	-0.199
Mof_O 	O 	0.662	0	0.46	-1.232
Mof_O 	O 	0.1798	0.1193	0.0939	-0.276
Mof_O 	O 	0.80605	0.6121	0.2804	-0.201
Mof_O 	O 	0.7839	0.9341	0.0559	-0.387
Mof_O 	O 	0.2161	0.1502	0.0559	-0.378
Mof_O 	O 	0.0925	0.784	0.5711	4.366
Mof_O 	O 	0.16546	0.63906	0.55426	-0.501
Mof_O 	O 	0.391	0.765	0.508	0.746
Mof_O 	O 	0.9316	0.0509	-0	-0.296
Mof_O 	O 	0.8202	0.8807	0.0939	-0.283
Mof_O 	O 	0.0684	0.9491	-0	-0.267
Mof_O 	O 	0.6915	0.9075	0.5711	4.015
Mof_O 	O 	0.765	0.391	0.492	0.747
Mof_O 	O 	0.0659	0.8498	0.9441	-0.329
Mof_O 	O 	0.609	0.374	0.508	0.747
Mof_O 	O 	0.7839	0.9341	0.9441	-0.337
Mof_O 	O 	0.765	0.374	0.508	0.747
Mof_O 	O 	0.0605	0.1798	0.0939	-0.273
Mof_O 	O 	0.6424	0.5488	0.4021	-0.47
Mof_O 	O 	0.338	0.338	0.46	-1.378
Mof_O 	O 	0.3576	0.9064	0.5979	-0.48
Mof_O 	O 	0.626	0.235	0.492	0.747
Mof_O 	O 	0.3418	6.44661e-33	0.4361	0.936
Mof_O 	O 	0.216	0.3085	0.4289	4.575
Mof_O 	O 	0.5264	0.36094	0.55426	-0.499
Mof_O 	O 	0.0936	0.6424	0.5979	-0.477
Mof_O 	O 	0.4512	0.3576	0.4021	-0.472
Mof_O 	O 	1.53135e-17	0.5659	0.3462	0.011
Mof_O 	O 	-2.06223e-17	0.6496	0.6372	0.308
Mof_O 	O 	7.36634e-17	0.3697	0.3439	-0.703
Mof_O 	O 	0.0684	0.1193	-0	-0.284
Mof_O 	O 	0.94548	0.40335	0.5	-0.58
Mof_O 	O 	0.9395	0.1193	0.0939	-0.284
Mof_O 	O 	4.21166e-18	0.6582	0.4361	0.84
Mof_O 	O 	0.6582	0	0.5639	0.844
Mof_O 	O 	0.9341	0.7839	0.9441	-0.337
Mof_O 	O 	0.52726	0.05452	0.56743	-0.579
Mof_O 	O 	0.0659	0.8498	0.0559	-0.38
Mof_O 	O 	0.391	0.626	0.508	0.747
Mof_O 	O 	0.63906	0.16546	0.44574	-0.502
Mof_O 	O 	0.05452	0.52726	0.43257	-0.579
Mof_O 	O 	0.6582	0.6582	0.5639	0.79
Mof_O 	O 	0.19395	0.3879	0.2804	-0.201
Mof_O 	O 	0.9395	0.8202	0.9061	-0.275
Mof_O 	O 	0.16546	0.5264	0.55426	-0.501
Mof_O 	O 	0.4512	0.0936	0.5979	-0.477
Mof_O 	O 	0.338	0	0.54	-1.329
Mof_O 	O 	0.59665	0.05452	0.5	-0.572
Mof_O 	O 	0.19395	0.3879	0.7196	-0.198
Mof_O 	O 	0.45787	0.40335	0.5	-0.565
Mof_O 	O 	1.32635e-17	0.3504	0.3628	0.307
Mof_O 	O 	4.64955e-17	0.6582	0.5639	0.844
Mof_O 	O 	0.3697	0.3697	0.6561	-0.738
Mof_O 	O 	0.3085	0.216	0.5711	4.576
Mof_O 	O 	0.9064	0.5488	0.4021	-0.48
Mof_O 	O 	3.44428e-17	0.5426	0.6615	-0.787
Mof_O 	O 	0.765	0.391	0.508	0.746
Mof_O 	O 	0.6303	0	0.3439	-0.7
Mof_O 	O 	3.02932e-17	0.338	0.46	-1.325
Mof_O 	O 	0.47274	0.52726	0.43257	-0.577
Mof_O 	O 	0.6424	0.0936	0.5979	-0.477
Mof_O 	O 	0.36094	0.83454	0.55426	-0.501
Mof_O 	O 	0.83454	0.4736	0.55426	-0.501
Mof_O 	O 	0.9341	0.7839	0.0559	-0.387
Mof_O 	O 	0.4341	0	0.6538	0.02
Mof_O 	O 	0.36094	0.5264	0.44574	-0.5
Mof_O 	O 	0.4736	0.63906	0.44574	-0.5
Mof_O 	O 	0.0925	0.3085	0.5711	4.636
Mof_O 	O 	1.55975e-17	0.6303	0.3439	-0.7
Mof_O 	O 	0.6121	0.80605	0.2804	-0.201
Mof_O 	O 	0.4574	0	0.3385	-0.789
Mof_O 	O 	0.1502	0.2161	0.0559	-0.378
Mof_O 	O 	0.1193	0.1798	0.9061	-0.263
Mof_O 	O 	0.16546	0.5264	0.44574	-0.501
Mof_O 	O 	0.45787	0.05452	0.5	-0.57
Mof_O 	O 	0.47274	0.94548	0.56743	-0.592
Mof_O 	O 	0.7839	0.8498	0.0559	-0.38
Mof_O 	O 	0.5264	0.16546	0.44574	-0.501
Mof_O 	O 	0.3576	0.4512	0.4021	-0.472
Mof_O 	O 	-4.48024e-17	0.6496	0.3628	0.309
Mof_O 	O 	0.94548	0.47274	0.56743	-0.592
Mof_O 	O 	0.6915	0.9075	0.4289	4.019
Mof_O 	O 	0.765	0.374	0.492	0.748
Mof_O 	O 	0.52726	0.47274	0.56743	-0.577
Mof_O 	O 	0.784	0.6915	0.4289	4.058
Mof_O 	O 	0.4574	0.4574	0.6615	-0.798
Mof_O 	O 	0.6915	0.784	0.4289	4.058
Mof_O 	O 	0.6303	1.28932e-32	0.6561	-0.699
Mof_O 	O 	0.6496	0	0.6372	0.308
Mof_O 	O 	4.94469e-17	0.338	0.54	-1.329
Mof_O 	O 	0.8498	0.7839	0.9441	-0.33
Mof_O 	O 	0.3418	0.3418	0.4361	0.982
Mof_O 	O 	0.3697	1.28932e-32	0.6561	-0.702
Mof_O 	O 	0.9491	0.0684	-0	-0.267
Mof_O 	O 	0.3879	0.19395	0.7196	-0.198
Mof_O 	O 	0.8498	0.0659	0.0559	-0.38
Mof_F 	F 	-2.16846e-17	0.2557	0.4107	1.747
Mof_F 	F 	0.593	6.44661e-33	0.2568	1.045
Mof_F 	F 	-2.67943e-18	0.407	0.2568	1.045
Mof_F 	F 	0.593	0.593	0.7432	1.046
Mof_F 	F 	-1.08784e-16	0.7443	0.4107	1.692
Mof_F 	F 	0.2557	0.2557	0.5893	1.774
Mof_F 	F 	0.7443	0	0.5893	1.692
Mof_F 	F 	0.407	1.28932e-32	0.7432	1.043
Mof_F 	F 	-7.2773e-17	0.7443	0.5893	1.692
Mof_F 	F 	0.2557	0	0.5893	1.748
Mof_F 	F 	0.407	6.44661e-33	0.2568	1.045
Mof_F 	F 	0.2557	0.2557	0.4107	1.773
Mof_F 	F 	0.407	0.407	0.7432	1.045
Mof_F 	F 	-1.9062e-19	0.2557	0.5893	1.748
Mof_F 	F 	0.407	0.407	0.2568	1.047
Mof_F 	F 	0.2557	6.44661e-33	0.4107	1.747
Mof_F 	F 	-3.17124e-17	0.593	0.2568	1.045
Mof_F 	F 	0.593	0.593	0.2568	1.048
Mof_F 	F 	0.7443	6.44661e-33	0.4107	1.692
Mof_F 	F 	0.7443	0.7443	0.4107	1.663
Mof_F 	F 	2.43536e-17	0.593	0.7432	1.043
Mof_F 	F 	0.593	1.28932e-32	0.7432	1.043
Mof_F 	F 	-4.67935e-18	0.407	0.7432	1.043
Mof_F 	F 	0.7443	0.7443	0.5893	1.662
_end
