data_functionalizedCrystal
_audit_creation_method	'EQeq! by Chris Wilmer'
_symmetry_space_group_name_H-M	'P1'
_symmetry_Int_Tables_number	1
_symmetry_cell_setting	triclinic
loop_
_symmetry_equiv_pos_as_xyz
  x,y,z
_cell_length_a	14.803
_cell_length_b	19.783
_cell_length_c	8.202
_cell_angle_alpha	90
_cell_angle_beta	90
_cell_angle_gamma	90
loop_
_atom_site_label
_atom_site_type_symbol
_atom_site_fract_x
_atom_site_fract_y
_atom_site_fract_z
_atom_site_charge
Mof_O 	O 	0.7547	0.7163	0.7272	-0.286
Mof_O 	O 	0.6431	0.7881	0.6636	-0.335
Mof_O 	O 	0.6442	0.659	0.9523	-0.245
Mof_O 	O 	0.5433	0.7403	0.9091	-0.304
Mof_C 	C 	0.6781	0.7404	0.7461	0.255
Mof_C 	C 	0.6172	0.71	0.8799	0.238
Mof_O 	O 	0.2453	0.7163	0.7728	-0.298
Mof_O 	O 	0.3569	0.7881	0.8364	-0.339
Mof_O 	O 	0.3558	0.659	0.5477	-0.241
Mof_O 	O 	0.4567	0.7403	0.5909	-0.303
Mof_C 	C 	0.3219	0.7404	0.7539	0.257
Mof_C 	C 	0.3828	0.71	0.6201	0.235
Mof_Bi	Bi	0.5	0.82854	0.75	0.912
Mof_O 	O 	0.7453	0.7837	0.2272	-0.291
Mof_O 	O 	0.8569	0.7119	0.1636	-0.302
Mof_O 	O 	0.8558	0.841	0.4523	-0.226
Mof_O 	O 	0.9567	0.7597	0.4091	-0.241
Mof_C 	C 	0.8219	0.7596	0.2461	0.262
Mof_C 	C 	0.8828	0.79	0.3799	0.234
Mof_O 	O 	0.2547	0.7837	0.2728	-0.294
Mof_O 	O 	0.1431	0.7119	0.3364	-0.335
Mof_O 	O 	0.1442	0.841	0.0477	-0.255
Mof_O 	O 	0.0433	0.7597	0.0909	-0.322
Mof_C 	C 	0.1781	0.7596	0.2539	0.251
Mof_C 	C 	0.1172	0.79	0.1201	0.235
Mof_Bi	Bi	-3.42176e-33	0.67146	0.25	0.775
Mof_O 	O 	0.2453	0.2837	0.2728	-0.298
Mof_O 	O 	0.3569	0.2119	0.3364	-0.338
Mof_O 	O 	0.3558	0.341	0.0477	-0.24
Mof_O 	O 	0.4567	0.2597	0.0909	-0.302
Mof_C 	C 	0.3219	0.2596	0.2539	0.257
Mof_C 	C 	0.3828	0.29	0.1201	0.235
Mof_O 	O 	0.7547	0.2837	0.2272	-0.285
Mof_O 	O 	0.6431	0.2119	0.1636	-0.334
Mof_O 	O 	0.6442	0.341	0.4523	-0.245
Mof_O 	O 	0.5433	0.2597	0.4091	-0.303
Mof_C 	C 	0.6781	0.2596	0.2461	0.255
Mof_C 	C 	0.6172	0.29	0.3799	0.238
Mof_Bi	Bi	0.5	0.17146	0.25	0.914
Mof_O 	O 	0.2547	0.2163	0.7728	-0.295
Mof_O 	O 	0.1431	0.2881	0.8364	-0.335
Mof_O 	O 	0.1442	0.159	0.5477	-0.255
Mof_O 	O 	0.0433	0.2403	0.5909	-0.322
Mof_C 	C 	0.1781	0.2404	0.7539	0.251
Mof_C 	C 	0.1172	0.21	0.6201	0.235
Mof_O 	O 	0.7453	0.2163	0.7272	-0.292
Mof_O 	O 	0.8569	0.2881	0.6636	-0.304
Mof_O 	O 	0.8558	0.159	0.9523	-0.228
Mof_O 	O 	0.9567	0.2403	0.9091	-0.243
Mof_C 	C 	0.8219	0.2404	0.7461	0.261
Mof_C 	C 	0.8828	0.21	0.8799	0.234
Mof_Bi	Bi	6.81292e-33	0.32854	0.75	0.777
Mof_Bi	Bi	0.19557	0.61612	0.59677	0.928
Mof_O 	O 	0.2764	0.5626	0.7941	-0.28
Mof_O 	O 	0.2832	0.4715	0.9504	-0.243
Mof_O 	O 	0.1256	0.5141	0.6505	-0.358
Mof_O 	O 	0.1296	0.425	0.8154	-0.346
Mof_C 	C 	0.159	0.4795	0.7632	0.266
Mof_C 	C 	0.2471	0.5067	0.8442	0.228
Mof_Bi	Bi	0.80443	0.61612	0.90323	0.971
Mof_O 	O 	0.7236	0.5626	0.7059	-0.283
Mof_O 	O 	0.7168	0.4715	0.5496	-0.248
Mof_O 	O 	0.8744	0.5141	0.8495	-0.323
Mof_O 	O 	0.8704	0.425	0.6846	-0.312
Mof_C 	C 	0.841	0.4795	0.7368	0.263
Mof_C 	C 	0.7529	0.5067	0.6558	0.236
Mof_O 	O 	0.2236	0.0626	0.7941	-0.29
Mof_O 	O 	0.2168	0.9715	0.9504	-0.254
Mof_O 	O 	0.3744	0.0141	0.6505	-0.347
Mof_O 	O 	0.3704	0.925	0.8154	-0.344
Mof_C 	C 	0.341	0.9795	0.7632	0.267
Mof_C 	C 	0.2529	0.0067	0.8442	0.229
Mof_Bi	Bi	0.30443	0.11612	0.59677	0.941
Mof_O 	O 	0.7764	0.0626	0.7059	-0.271
Mof_O 	O 	0.7832	0.9715	0.5496	-0.233
Mof_O 	O 	0.6256	0.0141	0.8495	-0.349
Mof_O 	O 	0.6296	0.925	0.6846	-0.344
Mof_C 	C 	0.659	0.9795	0.7368	0.27
Mof_C 	C 	0.7471	0.0067	0.6558	0.228
Mof_Bi	Bi	0.69557	0.11612	0.90323	0.943
Mof_Bi	Bi	0.30443	0.88388	0.09677	0.944
Mof_O 	O 	0.2236	0.9374	0.2941	-0.29
Mof_O 	O 	0.2168	0.0285	0.4504	-0.254
Mof_O 	O 	0.3744	0.9859	0.1505	-0.346
Mof_O 	O 	0.3704	0.075	0.3154	-0.344
Mof_C 	C 	0.341	0.0205	0.2632	0.267
Mof_C 	C 	0.2529	0.9933	0.3442	0.23
Mof_Bi	Bi	0.69557	0.88388	0.40323	0.949
Mof_O 	O 	0.7764	0.9374	0.2059	-0.27
Mof_O 	O 	0.7832	0.0285	0.0496	-0.23
Mof_O 	O 	0.6256	0.9859	0.3495	-0.348
Mof_O 	O 	0.6296	0.075	0.1846	-0.342
Mof_C 	C 	0.659	0.0205	0.2368	0.271
Mof_C 	C 	0.7471	0.9933	0.1558	0.228
Mof_O 	O 	0.2764	0.4374	0.2941	-0.28
Mof_O 	O 	0.2832	0.5285	0.4504	-0.242
Mof_O 	O 	0.1256	0.4859	0.1505	-0.358
Mof_O 	O 	0.1296	0.575	0.3154	-0.346
Mof_C 	C 	0.159	0.5205	0.2632	0.266
Mof_C 	C 	0.2471	0.4933	0.3442	0.229
Mof_Bi	Bi	0.19557	0.38388	0.09677	0.93
Mof_O 	O 	0.7236	0.4374	0.2059	-0.283
Mof_O 	O 	0.7168	0.5285	0.0496	-0.245
Mof_O 	O 	0.8744	0.4859	0.3495	-0.322
Mof_O 	O 	0.8704	0.575	0.1846	-0.31
Mof_C 	C 	0.841	0.5205	0.2368	0.263
Mof_C 	C 	0.7529	0.4933	0.1558	0.236
Mof_Bi	Bi	0.80443	0.38388	0.40323	0.977
_end
