data_functionalizedCrystal
_audit_creation_method	'EQeq! by Chris Wilmer'
_symmetry_space_group_name_H-M	'P1'
_symmetry_Int_Tables_number	1
_symmetry_cell_setting	triclinic
loop_
_symmetry_equiv_pos_as_xyz
  x,y,z
_cell_length_a	10.9449
_cell_length_b	10.9449
_cell_length_c	9.609
_cell_angle_alpha	90
_cell_angle_beta	90
_cell_angle_gamma	90
loop_
_atom_site_label
_atom_site_type_symbol
_atom_site_fract_x
_atom_site_fract_y
_atom_site_fract_z
_atom_site_charge
Mof_O 	O 	0.18275	0.0161	0.38482	0.24
Mof_C 	C 	0.0478	0.1141	0.0799	-0.722
Mof_H 	H 	0.1313	0.1261	0.1139	0.227
Mof_H 	H 	0.9977	0.182	0.1139	-0.257
Mof_O 	O 	0.81725	0.9839	0.38482	-0.536
Mof_C 	C 	0.9522	0.8859	0.0799	0.71
Mof_H 	H 	0.8687	0.8739	0.1139	-0.198
Mof_H 	H 	0.0023	0.818	0.1139	0.268
Mof_O 	O 	0.9839	0.18275	0.38482	-0.62
Mof_C 	C 	0.8859	0.0478	0.0799	-1.608
Mof_H 	H 	0.8739	0.1313	0.1139	0.147
Mof_H 	H 	0.818	0.9977	0.1139	0.06
Mof_O 	O 	0.0161	0.81725	0.38482	0.234
Mof_C 	C 	0.1141	0.9522	0.0799	1.633
Mof_H 	H 	0.1261	0.8687	0.1139	-0.125
Mof_H 	H 	0.182	0.0023	0.1139	-0.016
Mof_O 	O 	0.81725	0.0161	0.61518	0.234
Mof_C 	C 	0.9522	0.1141	0.9201	1.633
Mof_H 	H 	0.8687	0.1261	0.8861	-0.125
Mof_H 	H 	0.0023	0.182	0.8861	-0.016
Mof_O 	O 	0.18275	0.9839	0.61518	-0.62
Mof_C 	C 	0.0478	0.8859	0.9201	-1.608
Mof_H 	H 	0.1313	0.8739	0.8861	0.147
Mof_H 	H 	0.9977	0.818	0.8861	0.06
Mof_O 	O 	0.0161	0.18275	0.61518	0.241
Mof_C 	C 	0.1141	0.0478	0.9201	-0.721
Mof_H 	H 	0.1261	0.1313	0.8861	0.227
Mof_H 	H 	0.182	0.9977	0.8861	-0.257
Mof_O 	O 	0.9839	0.81725	0.61518	-0.536
Mof_C 	C 	0.8859	0.9522	0.9201	0.71
Mof_H 	H 	0.8739	0.8687	0.8861	-0.198
Mof_H 	H 	0.818	0.0023	0.8861	0.268
Mof_O 	O 	0.81725	0.9839	0.61518	-0.536
Mof_C 	C 	0.9522	0.8859	0.9201	0.71
Mof_H 	H 	0.8687	0.8739	0.8861	-0.198
Mof_H 	H 	0.0023	0.818	0.8861	0.268
Mof_O 	O 	0.18275	0.0161	0.61518	0.241
Mof_C 	C 	0.0478	0.1141	0.9201	-0.721
Mof_H 	H 	0.1313	0.1261	0.8861	0.227
Mof_H 	H 	0.9977	0.182	0.8861	-0.257
Mof_O 	O 	0.0161	0.81725	0.61518	0.234
Mof_C 	C 	0.1141	0.9522	0.9201	1.633
Mof_H 	H 	0.1261	0.8687	0.8861	-0.125
Mof_H 	H 	0.182	0.0023	0.8861	-0.016
Mof_O 	O 	0.9839	0.18275	0.61518	-0.62
Mof_C 	C 	0.8859	0.0478	0.9201	-1.608
Mof_H 	H 	0.8739	0.1313	0.8861	0.147
Mof_H 	H 	0.818	0.9977	0.8861	0.06
Mof_O 	O 	0.18275	0.9839	0.38482	-0.62
Mof_C 	C 	0.0478	0.8859	0.0799	-1.608
Mof_H 	H 	0.1313	0.8739	0.1139	0.147
Mof_H 	H 	0.9977	0.818	0.1139	0.06
Mof_O 	O 	0.81725	0.0161	0.38482	0.234
Mof_C 	C 	0.9522	0.1141	0.0799	1.633
Mof_H 	H 	0.8687	0.1261	0.1139	-0.125
Mof_H 	H 	0.0023	0.182	0.1139	-0.016
Mof_O 	O 	0.9839	0.81725	0.38482	-0.536
Mof_C 	C 	0.8859	0.9522	0.0799	0.71
Mof_H 	H 	0.8739	0.8687	0.1139	-0.198
Mof_H 	H 	0.818	0.0023	0.1139	0.268
Mof_O 	O 	0.0161	0.18275	0.38482	0.241
Mof_C 	C 	0.1141	0.0478	0.0799	-0.721
Mof_H 	H 	0.1261	0.1313	0.1139	0.227
Mof_H 	H 	0.182	0.9977	0.1139	-0.257
Mof_Zn	Zn	1.15189e-33	0	0.34993	1.141
Mof_N 	N 	4.40767e-34	0	0.1339	-0.328
Mof_Zn	Zn	2.13987e-33	0	0.65007	1.141
Mof_N 	N 	-8.11426e-33	0	0.8661	-0.328
Mof_C 	C 	0.23534	0	0.5	0.175
Mof_C 	C 	0.37259	0	0.5	-0.048
Mof_C 	C 	0.76466	0	0.5	0.204
Mof_C 	C 	0.62741	0	0.5	-0.027
Mof_C 	C 	1.64588e-33	0.23534	0.5	0.175
Mof_C 	C 	-3.83675e-33	0.37259	0.5	-0.048
Mof_C 	C 	-3.83675e-33	0.76466	0.5	0.204
Mof_C 	C 	-3.83675e-33	0.62741	0.5	-0.027
Mof_C 	C 	0.43664	0	0.62195	-0.033
Mof_H 	H 	0.3943	0	0.707	0.032
Mof_C 	C 	0.56336	0	0.62195	-0.04
Mof_H 	H 	0.6057	0	0.707	0.044
Mof_C 	C 	7.52994e-33	0.43664	0.62195	-0.033
Mof_H 	H 	7.8099e-33	0.3943	0.707	0.032
Mof_C 	C 	7.52994e-33	0.56336	0.62195	-0.04
Mof_H 	H 	7.8099e-33	0.6057	0.707	0.044
Mof_C 	C 	0.56336	0	0.37805	-0.04
Mof_H 	H 	0.6057	2.74131e-33	0.293	0.044
Mof_C 	C 	0.43664	0	0.37805	-0.033
Mof_H 	H 	0.3943	2.74131e-33	0.293	0.032
Mof_C 	C 	1.24445e-33	0.43664	0.37805	-0.033
Mof_H 	H 	9.64486e-34	0.3943	0.293	0.032
Mof_C 	C 	1.24445e-33	0.56336	0.37805	-0.04
Mof_H 	H 	3.7058e-33	0.6057	0.293	0.044
_end
