data_functionalizedCrystal
_audit_creation_method	'EQeq! by Chris Wilmer'
_symmetry_space_group_name_H-M	'P1'
_symmetry_Int_Tables_number	1
_symmetry_cell_setting	triclinic
loop_
_symmetry_equiv_pos_as_xyz
  x,y,z
_cell_length_a	36.1226
_cell_length_b	36.1226
_cell_length_c	36.1226
_cell_angle_alpha	90
_cell_angle_beta	90
_cell_angle_gamma	90
loop_
_atom_site_label
_atom_site_type_symbol
_atom_site_fract_x
_atom_site_fract_y
_atom_site_fract_z
_atom_site_charge
Mof_O 	O 	0.28804	0.2064	0.1952	-0.408
Mof_O 	O 	0.2531	0.2506	0.16977	-0.388
Mof_C 	C 	0.286	0.1657	0.1311	0.053
Mof_H 	H 	0.2969	0.1557	0.1528	0.025
Mof_C 	C 	0.256	0.2151	0.1004	0.054
Mof_H 	H 	0.2457	0.2392	0.1006	0.024
Mof_C 	C 	0.286	0.146	0.0998	-0.111
Mof_H 	H 	0.2969	0.1221	0.0997	0.065
Mof_C 	C 	0.2716	0.1375	0.0323	0.077
Mof_C 	C 	0.2702	0.1597	0.067	0.043
Mof_C 	C 	0.2701	0.2006	0.1318	-0.133
Mof_C 	C 	0.2712	0.1001	0.0333	-0.137
Mof_H 	H 	0.271	0.0874	0.0563	0.071
Mof_C 	C 	0.2565	0.1946	0.0676	-0.108
Mof_H 	H 	0.247	0.2052	0.0455	0.073
Mof_C 	C 	0.2709	0.2205	0.1689	0.409
Mof_C 	C 	0.2531	0.0198	0.9727	-0.035
Mof_H 	H 	0.2398	0.0325	0.9538	0.038
Mof_C 	C 	0.2895	0.0194	0.9734	-0.033
Mof_H 	H 	0.3021	0.0317	0.954	0.036
Mof_O 	O 	0.71196	0.7936	0.1952	-0.408
Mof_O 	O 	0.7469	0.7494	0.16977	-0.388
Mof_C 	C 	0.714	0.8343	0.1311	0.053
Mof_H 	H 	0.7031	0.8443	0.1528	0.025
Mof_C 	C 	0.744	0.7849	0.1004	0.054
Mof_H 	H 	0.7543	0.7608	0.1006	0.024
Mof_C 	C 	0.714	0.854	0.0998	-0.111
Mof_H 	H 	0.7031	0.8779	0.0997	0.065
Mof_C 	C 	0.7284	0.8625	0.0323	0.077
Mof_C 	C 	0.7298	0.8403	0.067	0.043
Mof_C 	C 	0.7299	0.7994	0.1318	-0.133
Mof_C 	C 	0.7288	0.8999	0.0333	-0.136
Mof_H 	H 	0.729	0.9126	0.0563	0.071
Mof_C 	C 	0.7435	0.8054	0.0676	-0.108
Mof_H 	H 	0.753	0.7948	0.0455	0.073
Mof_C 	C 	0.7291	0.7795	0.1689	0.409
Mof_C 	C 	0.7469	0.9802	0.9727	-0.036
Mof_H 	H 	0.7602	0.9675	0.9538	0.038
Mof_C 	C 	0.7105	0.9806	0.9734	-0.034
Mof_H 	H 	0.6979	0.9683	0.954	0.037
Mof_O 	O 	0.71196	0.2064	0.8048	-0.408
Mof_O 	O 	0.7469	0.2506	0.83023	-0.388
Mof_C 	C 	0.714	0.1657	0.8689	0.053
Mof_H 	H 	0.7031	0.1557	0.8472	0.025
Mof_C 	C 	0.744	0.2151	0.8996	0.054
Mof_H 	H 	0.7543	0.2392	0.8994	0.024
Mof_C 	C 	0.714	0.146	0.9002	-0.111
Mof_H 	H 	0.7031	0.1221	0.9003	0.065
Mof_C 	C 	0.7284	0.1375	0.9677	0.077
Mof_C 	C 	0.7298	0.1597	0.933	0.043
Mof_C 	C 	0.7299	0.2006	0.8682	-0.133
Mof_C 	C 	0.7288	0.1001	0.9667	-0.137
Mof_H 	H 	0.729	0.0874	0.9437	0.072
Mof_C 	C 	0.7435	0.1946	0.9324	-0.108
Mof_H 	H 	0.753	0.2052	0.9545	0.073
Mof_C 	C 	0.7291	0.2205	0.8311	0.409
Mof_C 	C 	0.7469	0.0198	0.0273	-0.035
Mof_H 	H 	0.7602	0.0325	0.0462	0.038
Mof_C 	C 	0.7105	0.0194	0.0266	-0.032
Mof_H 	H 	0.6979	0.0317	0.046	0.036
Mof_O 	O 	0.28804	0.7936	0.8048	-0.407
Mof_O 	O 	0.2531	0.7494	0.83023	-0.387
Mof_C 	C 	0.286	0.8343	0.8689	0.054
Mof_H 	H 	0.2969	0.8443	0.8472	0.026
Mof_C 	C 	0.256	0.7849	0.8996	0.055
Mof_H 	H 	0.2457	0.7608	0.8994	0.025
Mof_C 	C 	0.286	0.854	0.9002	-0.11
Mof_H 	H 	0.2969	0.8779	0.9003	0.066
Mof_C 	C 	0.2716	0.8625	0.9677	0.077
Mof_C 	C 	0.2702	0.8403	0.933	0.044
Mof_C 	C 	0.2701	0.7994	0.8682	-0.132
Mof_C 	C 	0.2712	0.8999	0.9667	-0.135
Mof_H 	H 	0.271	0.9126	0.9437	0.072
Mof_C 	C 	0.2565	0.8054	0.9324	-0.107
Mof_H 	H 	0.247	0.7948	0.9545	0.074
Mof_C 	C 	0.2709	0.7795	0.8311	0.41
Mof_C 	C 	0.2531	0.9802	0.0273	-0.035
Mof_H 	H 	0.2398	0.9675	0.0462	0.039
Mof_C 	C 	0.2895	0.9806	0.0266	-0.033
Mof_H 	H 	0.3021	0.9683	0.046	0.038
Mof_O 	O 	0.1952	0.28804	0.2064	-0.407
Mof_O 	O 	0.16977	0.2531	0.2506	-0.387
Mof_C 	C 	0.1311	0.286	0.1657	0.054
Mof_H 	H 	0.1528	0.2969	0.1557	0.026
Mof_C 	C 	0.1004	0.256	0.2151	0.055
Mof_H 	H 	0.1006	0.2457	0.2392	0.025
Mof_C 	C 	0.0998	0.286	0.146	-0.11
Mof_H 	H 	0.0997	0.2969	0.1221	0.066
Mof_C 	C 	0.0323	0.2716	0.1375	0.078
Mof_C 	C 	0.067	0.2702	0.1597	0.044
Mof_C 	C 	0.1318	0.2701	0.2006	-0.132
Mof_C 	C 	0.0333	0.2712	0.1001	-0.136
Mof_H 	H 	0.0563	0.271	0.0874	0.072
Mof_C 	C 	0.0676	0.2565	0.1946	-0.107
Mof_H 	H 	0.0455	0.247	0.2052	0.074
Mof_C 	C 	0.1689	0.2709	0.2205	0.41
Mof_C 	C 	0.9727	0.2531	0.0198	-0.034
Mof_H 	H 	0.9538	0.2398	0.0325	0.039
Mof_C 	C 	0.9734	0.2895	0.0194	-0.032
Mof_H 	H 	0.954	0.3021	0.0317	0.037
Mof_O 	O 	0.1952	0.71196	0.7936	-0.407
Mof_O 	O 	0.16977	0.7469	0.7494	-0.387
Mof_C 	C 	0.1311	0.714	0.8343	0.054
Mof_H 	H 	0.1528	0.7031	0.8443	0.026
Mof_C 	C 	0.1004	0.744	0.7849	0.055
Mof_H 	H 	0.1006	0.7543	0.7608	0.025
Mof_C 	C 	0.0998	0.714	0.854	-0.11
Mof_H 	H 	0.0997	0.7031	0.8779	0.066
Mof_C 	C 	0.0323	0.7284	0.8625	0.078
Mof_C 	C 	0.067	0.7298	0.8403	0.044
Mof_C 	C 	0.1318	0.7299	0.7994	-0.132
Mof_C 	C 	0.0333	0.7288	0.8999	-0.135
Mof_H 	H 	0.0563	0.729	0.9126	0.072
Mof_C 	C 	0.0676	0.7435	0.8054	-0.107
Mof_H 	H 	0.0455	0.753	0.7948	0.074
Mof_C 	C 	0.1689	0.7291	0.7795	0.41
Mof_C 	C 	0.9727	0.7469	0.9802	-0.035
Mof_H 	H 	0.9538	0.7602	0.9675	0.039
Mof_C 	C 	0.9734	0.7105	0.9806	-0.033
Mof_H 	H 	0.954	0.6979	0.9683	0.038
Mof_O 	O 	0.8048	0.71196	0.2064	-0.407
Mof_O 	O 	0.83023	0.7469	0.2506	-0.387
Mof_C 	C 	0.8689	0.714	0.1657	0.054
Mof_H 	H 	0.8472	0.7031	0.1557	0.026
Mof_C 	C 	0.8996	0.744	0.2151	0.055
Mof_H 	H 	0.8994	0.7543	0.2392	0.025
Mof_C 	C 	0.9002	0.714	0.146	-0.11
Mof_H 	H 	0.9003	0.7031	0.1221	0.066
Mof_C 	C 	0.9677	0.7284	0.1375	0.078
Mof_C 	C 	0.933	0.7298	0.1597	0.044
Mof_C 	C 	0.8682	0.7299	0.2006	-0.132
Mof_C 	C 	0.9667	0.7288	0.1001	-0.136
Mof_H 	H 	0.9437	0.729	0.0874	0.073
Mof_C 	C 	0.9324	0.7435	0.1946	-0.107
Mof_H 	H 	0.9545	0.753	0.2052	0.074
Mof_C 	C 	0.8311	0.7291	0.2205	0.41
Mof_C 	C 	0.0273	0.7469	0.0198	-0.034
Mof_H 	H 	0.0462	0.7602	0.0325	0.039
Mof_C 	C 	0.0266	0.7105	0.0194	-0.031
Mof_H 	H 	0.046	0.6979	0.0317	0.037
Mof_O 	O 	0.8048	0.28804	0.7936	-0.407
Mof_O 	O 	0.83023	0.2531	0.7494	-0.387
Mof_C 	C 	0.8689	0.286	0.8343	0.054
Mof_H 	H 	0.8472	0.2969	0.8443	0.026
Mof_C 	C 	0.8996	0.256	0.7849	0.055
Mof_H 	H 	0.8994	0.2457	0.7608	0.025
Mof_C 	C 	0.9002	0.286	0.854	-0.11
Mof_H 	H 	0.9003	0.2969	0.8779	0.066
Mof_C 	C 	0.9677	0.2716	0.8625	0.077
Mof_C 	C 	0.933	0.2702	0.8403	0.044
Mof_C 	C 	0.8682	0.2701	0.7994	-0.132
Mof_C 	C 	0.9667	0.2712	0.8999	-0.135
Mof_H 	H 	0.9437	0.271	0.9126	0.072
Mof_C 	C 	0.9324	0.2565	0.8054	-0.107
Mof_H 	H 	0.9545	0.247	0.7948	0.074
Mof_C 	C 	0.8311	0.2709	0.7795	0.41
Mof_C 	C 	0.0273	0.2531	0.9802	-0.035
Mof_H 	H 	0.0462	0.2398	0.9675	0.039
Mof_C 	C 	0.0266	0.2895	0.9806	-0.033
Mof_H 	H 	0.046	0.3021	0.9683	0.038
Mof_O 	O 	0.2064	0.1952	0.28804	-0.407
Mof_O 	O 	0.2506	0.16977	0.2531	-0.387
Mof_C 	C 	0.1657	0.1311	0.286	0.054
Mof_H 	H 	0.1557	0.1528	0.2969	0.026
Mof_C 	C 	0.2151	0.1004	0.256	0.055
Mof_H 	H 	0.2392	0.1006	0.2457	0.025
Mof_C 	C 	0.146	0.0998	0.286	-0.11
Mof_H 	H 	0.1221	0.0997	0.2969	0.066
Mof_C 	C 	0.1375	0.0323	0.2716	0.078
Mof_C 	C 	0.1597	0.067	0.2702	0.044
Mof_C 	C 	0.2006	0.1318	0.2701	-0.132
Mof_C 	C 	0.1001	0.0333	0.2712	-0.136
Mof_H 	H 	0.0874	0.0563	0.271	0.072
Mof_C 	C 	0.1946	0.0676	0.2565	-0.107
Mof_H 	H 	0.2052	0.0455	0.247	0.074
Mof_C 	C 	0.2205	0.1689	0.2709	0.41
Mof_C 	C 	0.0198	0.9727	0.2531	-0.034
Mof_H 	H 	0.0325	0.9538	0.2398	0.039
Mof_C 	C 	0.0194	0.9734	0.2895	-0.032
Mof_H 	H 	0.0317	0.954	0.3021	0.037
Mof_O 	O 	0.7936	0.1952	0.71196	-0.407
Mof_O 	O 	0.7494	0.16977	0.7469	-0.387
Mof_C 	C 	0.8343	0.1311	0.714	0.054
Mof_H 	H 	0.8443	0.1528	0.7031	0.026
Mof_C 	C 	0.7849	0.1004	0.744	0.055
Mof_H 	H 	0.7608	0.1006	0.7543	0.025
Mof_C 	C 	0.854	0.0998	0.714	-0.11
Mof_H 	H 	0.8779	0.0997	0.7031	0.066
Mof_C 	C 	0.8625	0.0323	0.7284	0.078
Mof_C 	C 	0.8403	0.067	0.7298	0.044
Mof_C 	C 	0.7994	0.1318	0.7299	-0.132
Mof_C 	C 	0.8999	0.0333	0.7288	-0.135
Mof_H 	H 	0.9126	0.0563	0.729	0.072
Mof_C 	C 	0.8054	0.0676	0.7435	-0.107
Mof_H 	H 	0.7948	0.0455	0.753	0.074
Mof_C 	C 	0.7795	0.1689	0.7291	0.41
Mof_C 	C 	0.9802	0.9727	0.7469	-0.035
Mof_H 	H 	0.9675	0.9538	0.7602	0.039
Mof_C 	C 	0.9806	0.9734	0.7105	-0.033
Mof_H 	H 	0.9683	0.954	0.6979	0.038
Mof_O 	O 	0.2064	0.8048	0.71196	-0.407
Mof_O 	O 	0.2506	0.83023	0.7469	-0.387
Mof_C 	C 	0.1657	0.8689	0.714	0.054
Mof_H 	H 	0.1557	0.8472	0.7031	0.026
Mof_C 	C 	0.2151	0.8996	0.744	0.055
Mof_H 	H 	0.2392	0.8994	0.7543	0.025
Mof_C 	C 	0.146	0.9002	0.714	-0.11
Mof_H 	H 	0.1221	0.9003	0.7031	0.066
Mof_C 	C 	0.1375	0.9677	0.7284	0.078
Mof_C 	C 	0.1597	0.933	0.7298	0.044
Mof_C 	C 	0.2006	0.8682	0.7299	-0.132
Mof_C 	C 	0.1001	0.9667	0.7288	-0.136
Mof_H 	H 	0.0874	0.9437	0.729	0.073
Mof_C 	C 	0.1946	0.9324	0.7435	-0.107
Mof_H 	H 	0.2052	0.9545	0.753	0.074
Mof_C 	C 	0.2205	0.8311	0.7291	0.41
Mof_C 	C 	0.0198	0.0273	0.7469	-0.034
Mof_H 	H 	0.0325	0.0462	0.7602	0.039
Mof_C 	C 	0.0194	0.0266	0.7105	-0.031
Mof_H 	H 	0.0317	0.046	0.6979	0.037
Mof_O 	O 	0.7936	0.8048	0.28804	-0.407
Mof_O 	O 	0.7494	0.83023	0.2531	-0.387
Mof_C 	C 	0.8343	0.8689	0.286	0.054
Mof_H 	H 	0.8443	0.8472	0.2969	0.026
Mof_C 	C 	0.7849	0.8996	0.256	0.055
Mof_H 	H 	0.7608	0.8994	0.2457	0.025
Mof_C 	C 	0.854	0.9002	0.286	-0.11
Mof_H 	H 	0.8779	0.9003	0.2969	0.066
Mof_C 	C 	0.8625	0.9677	0.2716	0.077
Mof_C 	C 	0.8403	0.933	0.2702	0.044
Mof_C 	C 	0.7994	0.8682	0.2701	-0.132
Mof_C 	C 	0.8999	0.9667	0.2712	-0.135
Mof_H 	H 	0.9126	0.9437	0.271	0.072
Mof_C 	C 	0.8054	0.9324	0.2565	-0.107
Mof_H 	H 	0.7948	0.9545	0.247	0.074
Mof_C 	C 	0.7795	0.8311	0.2709	0.41
Mof_C 	C 	0.9802	0.0273	0.2531	-0.035
Mof_H 	H 	0.9675	0.0462	0.2398	0.039
Mof_C 	C 	0.9806	0.0266	0.2895	-0.033
Mof_H 	H 	0.9683	0.046	0.3021	0.038
Mof_O 	O 	0.7064	0.78804	0.3048	-0.407
Mof_O 	O 	0.7506	0.7531	0.33023	-0.387
Mof_C 	C 	0.6657	0.786	0.3689	0.054
Mof_H 	H 	0.6557	0.7969	0.3472	0.026
Mof_C 	C 	0.7151	0.756	0.3996	0.055
Mof_H 	H 	0.7392	0.7457	0.3994	0.025
Mof_C 	C 	0.646	0.786	0.4002	-0.11
Mof_H 	H 	0.6221	0.7969	0.4003	0.066
Mof_C 	C 	0.6375	0.7716	0.4677	0.078
Mof_C 	C 	0.6597	0.7702	0.433	0.044
Mof_C 	C 	0.7006	0.7701	0.3682	-0.132
Mof_C 	C 	0.6001	0.7712	0.4667	-0.135
Mof_H 	H 	0.5874	0.771	0.4437	0.072
Mof_C 	C 	0.6946	0.7565	0.4324	-0.107
Mof_H 	H 	0.7052	0.747	0.4545	0.074
Mof_C 	C 	0.7205	0.7709	0.3311	0.41
Mof_C 	C 	0.5198	0.7531	0.5273	-0.034
Mof_H 	H 	0.5325	0.7398	0.5462	0.039
Mof_C 	C 	0.5194	0.7895	0.5266	-0.032
Mof_H 	H 	0.5317	0.8021	0.546	0.038
Mof_O 	O 	0.2936	0.21196	0.3048	-0.407
Mof_O 	O 	0.2494	0.2469	0.33023	-0.387
Mof_C 	C 	0.3343	0.214	0.3689	0.054
Mof_H 	H 	0.3443	0.2031	0.3472	0.026
Mof_C 	C 	0.2849	0.244	0.3996	0.055
Mof_H 	H 	0.2608	0.2543	0.3994	0.025
Mof_C 	C 	0.354	0.214	0.4002	-0.11
Mof_H 	H 	0.3779	0.2031	0.4003	0.066
Mof_C 	C 	0.3625	0.2284	0.4677	0.078
Mof_C 	C 	0.3403	0.2298	0.433	0.044
Mof_C 	C 	0.2994	0.2299	0.3682	-0.132
Mof_C 	C 	0.3999	0.2288	0.4667	-0.135
Mof_H 	H 	0.4126	0.229	0.4437	0.072
Mof_C 	C 	0.3054	0.2435	0.4324	-0.107
Mof_H 	H 	0.2948	0.253	0.4545	0.074
Mof_C 	C 	0.2795	0.2291	0.3311	0.41
Mof_C 	C 	0.4802	0.2469	0.5273	-0.034
Mof_H 	H 	0.4675	0.2602	0.5462	0.039
Mof_C 	C 	0.4806	0.2105	0.5266	-0.032
Mof_H 	H 	0.4683	0.1979	0.546	0.038
Mof_O 	O 	0.7064	0.21196	0.6952	-0.407
Mof_O 	O 	0.7506	0.2469	0.66977	-0.387
Mof_C 	C 	0.6657	0.214	0.6311	0.054
Mof_H 	H 	0.6557	0.2031	0.6528	0.026
Mof_C 	C 	0.7151	0.244	0.6004	0.055
Mof_H 	H 	0.7392	0.2543	0.6006	0.025
Mof_C 	C 	0.646	0.214	0.5998	-0.11
Mof_H 	H 	0.6221	0.2031	0.5997	0.066
Mof_C 	C 	0.6375	0.2284	0.5323	0.078
Mof_C 	C 	0.6597	0.2298	0.567	0.044
Mof_C 	C 	0.7006	0.2299	0.6318	-0.132
Mof_C 	C 	0.6001	0.2288	0.5333	-0.135
Mof_H 	H 	0.5874	0.229	0.5563	0.072
Mof_C 	C 	0.6946	0.2435	0.5676	-0.107
Mof_H 	H 	0.7052	0.253	0.5455	0.074
Mof_C 	C 	0.7205	0.2291	0.6689	0.41
Mof_C 	C 	0.5198	0.2469	0.4727	-0.034
Mof_H 	H 	0.5325	0.2602	0.4538	0.039
Mof_C 	C 	0.5194	0.2105	0.4734	-0.032
Mof_H 	H 	0.5317	0.1979	0.454	0.038
Mof_O 	O 	0.2936	0.78804	0.6952	-0.407
Mof_O 	O 	0.2494	0.7531	0.66977	-0.387
Mof_C 	C 	0.3343	0.786	0.6311	0.054
Mof_H 	H 	0.3443	0.7969	0.6528	0.026
Mof_C 	C 	0.2849	0.756	0.6004	0.055
Mof_H 	H 	0.2608	0.7457	0.6006	0.025
Mof_C 	C 	0.354	0.786	0.5998	-0.11
Mof_H 	H 	0.3779	0.7969	0.5997	0.066
Mof_C 	C 	0.3625	0.7716	0.5323	0.078
Mof_C 	C 	0.3403	0.7702	0.567	0.044
Mof_C 	C 	0.2994	0.7701	0.6318	-0.132
Mof_C 	C 	0.3999	0.7712	0.5333	-0.135
Mof_H 	H 	0.4126	0.771	0.5563	0.072
Mof_C 	C 	0.3054	0.7565	0.5676	-0.107
Mof_H 	H 	0.2948	0.747	0.5455	0.074
Mof_C 	C 	0.2795	0.7709	0.6689	0.41
Mof_C 	C 	0.4802	0.7531	0.4727	-0.034
Mof_H 	H 	0.4675	0.7398	0.4538	0.039
Mof_C 	C 	0.4806	0.7895	0.4734	-0.032
Mof_H 	H 	0.4683	0.8021	0.454	0.038
Mof_O 	O 	0.78804	0.6952	0.2936	-0.407
Mof_O 	O 	0.7531	0.66977	0.2494	-0.387
Mof_C 	C 	0.786	0.6311	0.3343	0.054
Mof_H 	H 	0.7969	0.6528	0.3443	0.026
Mof_C 	C 	0.756	0.6004	0.2849	0.055
Mof_H 	H 	0.7457	0.6006	0.2608	0.025
Mof_C 	C 	0.786	0.5998	0.354	-0.11
Mof_H 	H 	0.7969	0.5997	0.3779	0.066
Mof_C 	C 	0.7716	0.5323	0.3625	0.078
Mof_C 	C 	0.7702	0.567	0.3403	0.044
Mof_C 	C 	0.7701	0.6318	0.2994	-0.132
Mof_C 	C 	0.7712	0.5333	0.3999	-0.135
Mof_H 	H 	0.771	0.5563	0.4126	0.072
Mof_C 	C 	0.7565	0.5676	0.3054	-0.107
Mof_H 	H 	0.747	0.5455	0.2948	0.074
Mof_C 	C 	0.7709	0.6689	0.2795	0.41
Mof_C 	C 	0.7531	0.4727	0.4802	-0.034
Mof_H 	H 	0.7398	0.4538	0.4675	0.039
Mof_C 	C 	0.7895	0.4734	0.4806	-0.032
Mof_H 	H 	0.8021	0.454	0.4683	0.038
Mof_O 	O 	0.21196	0.6952	0.7064	-0.407
Mof_O 	O 	0.2469	0.66977	0.7506	-0.387
Mof_C 	C 	0.214	0.6311	0.6657	0.054
Mof_H 	H 	0.2031	0.6528	0.6557	0.026
Mof_C 	C 	0.244	0.6004	0.7151	0.055
Mof_H 	H 	0.2543	0.6006	0.7392	0.025
Mof_C 	C 	0.214	0.5998	0.646	-0.11
Mof_H 	H 	0.2031	0.5997	0.6221	0.066
Mof_C 	C 	0.2284	0.5323	0.6375	0.078
Mof_C 	C 	0.2298	0.567	0.6597	0.044
Mof_C 	C 	0.2299	0.6318	0.7006	-0.132
Mof_C 	C 	0.2288	0.5333	0.6001	-0.135
Mof_H 	H 	0.229	0.5563	0.5874	0.072
Mof_C 	C 	0.2435	0.5676	0.6946	-0.107
Mof_H 	H 	0.253	0.5455	0.7052	0.074
Mof_C 	C 	0.2291	0.6689	0.7205	0.41
Mof_C 	C 	0.2469	0.4727	0.5198	-0.034
Mof_H 	H 	0.2602	0.4538	0.5325	0.039
Mof_C 	C 	0.2105	0.4734	0.5194	-0.032
Mof_H 	H 	0.1979	0.454	0.5317	0.038
Mof_O 	O 	0.21196	0.3048	0.2936	-0.407
Mof_O 	O 	0.2469	0.33023	0.2494	-0.387
Mof_C 	C 	0.214	0.3689	0.3343	0.054
Mof_H 	H 	0.2031	0.3472	0.3443	0.026
Mof_C 	C 	0.244	0.3996	0.2849	0.055
Mof_H 	H 	0.2543	0.3994	0.2608	0.025
Mof_C 	C 	0.214	0.4002	0.354	-0.11
Mof_H 	H 	0.2031	0.4003	0.3779	0.066
Mof_C 	C 	0.2284	0.4677	0.3625	0.078
Mof_C 	C 	0.2298	0.433	0.3403	0.044
Mof_C 	C 	0.2299	0.3682	0.2994	-0.132
Mof_C 	C 	0.2288	0.4667	0.3999	-0.135
Mof_H 	H 	0.229	0.4437	0.4126	0.072
Mof_C 	C 	0.2435	0.4324	0.3054	-0.107
Mof_H 	H 	0.253	0.4545	0.2948	0.074
Mof_C 	C 	0.2291	0.3311	0.2795	0.41
Mof_C 	C 	0.2469	0.5273	0.4802	-0.034
Mof_H 	H 	0.2602	0.5462	0.4675	0.039
Mof_C 	C 	0.2105	0.5266	0.4806	-0.032
Mof_H 	H 	0.1979	0.546	0.4683	0.038
Mof_O 	O 	0.78804	0.3048	0.7064	-0.407
Mof_O 	O 	0.7531	0.33023	0.7506	-0.387
Mof_C 	C 	0.786	0.3689	0.6657	0.054
Mof_H 	H 	0.7969	0.3472	0.6557	0.026
Mof_C 	C 	0.756	0.3996	0.7151	0.055
Mof_H 	H 	0.7457	0.3994	0.7392	0.025
Mof_C 	C 	0.786	0.4002	0.646	-0.11
Mof_H 	H 	0.7969	0.4003	0.6221	0.066
Mof_C 	C 	0.7716	0.4677	0.6375	0.078
Mof_C 	C 	0.7702	0.433	0.6597	0.044
Mof_C 	C 	0.7701	0.3682	0.7006	-0.132
Mof_C 	C 	0.7712	0.4667	0.6001	-0.135
Mof_H 	H 	0.771	0.4437	0.5874	0.072
Mof_C 	C 	0.7565	0.4324	0.6946	-0.107
Mof_H 	H 	0.747	0.4545	0.7052	0.074
Mof_C 	C 	0.7709	0.3311	0.7205	0.41
Mof_C 	C 	0.7531	0.5273	0.5198	-0.034
Mof_H 	H 	0.7398	0.5462	0.5325	0.039
Mof_C 	C 	0.7895	0.5266	0.5194	-0.032
Mof_H 	H 	0.8021	0.546	0.5317	0.038
Mof_O 	O 	0.6952	0.7064	0.21196	-0.407
Mof_O 	O 	0.66977	0.7506	0.2469	-0.387
Mof_C 	C 	0.6311	0.6657	0.214	0.054
Mof_H 	H 	0.6528	0.6557	0.2031	0.026
Mof_C 	C 	0.6004	0.7151	0.244	0.055
Mof_H 	H 	0.6006	0.7392	0.2543	0.025
Mof_C 	C 	0.5998	0.646	0.214	-0.11
Mof_H 	H 	0.5997	0.6221	0.2031	0.066
Mof_C 	C 	0.5323	0.6375	0.2284	0.078
Mof_C 	C 	0.567	0.6597	0.2298	0.044
Mof_C 	C 	0.6318	0.7006	0.2299	-0.132
Mof_C 	C 	0.5333	0.6001	0.2288	-0.135
Mof_H 	H 	0.5563	0.5874	0.229	0.072
Mof_C 	C 	0.5676	0.6946	0.2435	-0.107
Mof_H 	H 	0.5455	0.7052	0.253	0.074
Mof_C 	C 	0.6689	0.7205	0.2291	0.41
Mof_C 	C 	0.4727	0.5198	0.2469	-0.034
Mof_H 	H 	0.4538	0.5325	0.2602	0.039
Mof_C 	C 	0.4734	0.5194	0.2105	-0.032
Mof_H 	H 	0.454	0.5317	0.1979	0.038
Mof_O 	O 	0.6952	0.2936	0.78804	-0.407
Mof_O 	O 	0.66977	0.2494	0.7531	-0.387
Mof_C 	C 	0.6311	0.3343	0.786	0.054
Mof_H 	H 	0.6528	0.3443	0.7969	0.026
Mof_C 	C 	0.6004	0.2849	0.756	0.055
Mof_H 	H 	0.6006	0.2608	0.7457	0.025
Mof_C 	C 	0.5998	0.354	0.786	-0.11
Mof_H 	H 	0.5997	0.3779	0.7969	0.066
Mof_C 	C 	0.5323	0.3625	0.7716	0.078
Mof_C 	C 	0.567	0.3403	0.7702	0.044
Mof_C 	C 	0.6318	0.2994	0.7701	-0.132
Mof_C 	C 	0.5333	0.3999	0.7712	-0.135
Mof_H 	H 	0.5563	0.4126	0.771	0.072
Mof_C 	C 	0.5676	0.3054	0.7565	-0.107
Mof_H 	H 	0.5455	0.2948	0.747	0.074
Mof_C 	C 	0.6689	0.2795	0.7709	0.41
Mof_C 	C 	0.4727	0.4802	0.7531	-0.034
Mof_H 	H 	0.4538	0.4675	0.7398	0.039
Mof_C 	C 	0.4734	0.4806	0.7895	-0.032
Mof_H 	H 	0.454	0.4683	0.8021	0.038
Mof_O 	O 	0.3048	0.7064	0.78804	-0.407
Mof_O 	O 	0.33023	0.7506	0.7531	-0.387
Mof_C 	C 	0.3689	0.6657	0.786	0.054
Mof_H 	H 	0.3472	0.6557	0.7969	0.026
Mof_C 	C 	0.3996	0.7151	0.756	0.055
Mof_H 	H 	0.3994	0.7392	0.7457	0.025
Mof_C 	C 	0.4002	0.646	0.786	-0.11
Mof_H 	H 	0.4003	0.6221	0.7969	0.066
Mof_C 	C 	0.4677	0.6375	0.7716	0.078
Mof_C 	C 	0.433	0.6597	0.7702	0.044
Mof_C 	C 	0.3682	0.7006	0.7701	-0.132
Mof_C 	C 	0.4667	0.6001	0.7712	-0.135
Mof_H 	H 	0.4437	0.5874	0.771	0.072
Mof_C 	C 	0.4324	0.6946	0.7565	-0.107
Mof_H 	H 	0.4545	0.7052	0.747	0.074
Mof_C 	C 	0.3311	0.7205	0.7709	0.41
Mof_C 	C 	0.5273	0.5198	0.7531	-0.034
Mof_H 	H 	0.5462	0.5325	0.7398	0.039
Mof_C 	C 	0.5266	0.5194	0.7895	-0.032
Mof_H 	H 	0.546	0.5317	0.8021	0.038
Mof_O 	O 	0.3048	0.2936	0.21196	-0.407
Mof_O 	O 	0.33023	0.2494	0.2469	-0.387
Mof_C 	C 	0.3689	0.3343	0.214	0.054
Mof_H 	H 	0.3472	0.3443	0.2031	0.026
Mof_C 	C 	0.3996	0.2849	0.244	0.055
Mof_H 	H 	0.3994	0.2608	0.2543	0.025
Mof_C 	C 	0.4002	0.354	0.214	-0.11
Mof_H 	H 	0.4003	0.3779	0.2031	0.066
Mof_C 	C 	0.4677	0.3625	0.2284	0.078
Mof_C 	C 	0.433	0.3403	0.2298	0.044
Mof_C 	C 	0.3682	0.2994	0.2299	-0.132
Mof_C 	C 	0.4667	0.3999	0.2288	-0.135
Mof_H 	H 	0.4437	0.4126	0.229	0.072
Mof_C 	C 	0.4324	0.3054	0.2435	-0.107
Mof_H 	H 	0.4545	0.2948	0.253	0.074
Mof_C 	C 	0.3311	0.2795	0.2291	0.41
Mof_C 	C 	0.5273	0.4802	0.2469	-0.034
Mof_H 	H 	0.5462	0.4675	0.2602	0.039
Mof_C 	C 	0.5266	0.4806	0.2105	-0.032
Mof_H 	H 	0.546	0.4683	0.1979	0.038
Mof_O 	O 	0.71196	0.7936	0.8048	-0.407
Mof_O 	O 	0.7469	0.7494	0.83023	-0.387
Mof_C 	C 	0.714	0.8343	0.8689	0.054
Mof_H 	H 	0.7031	0.8443	0.8472	0.026
Mof_C 	C 	0.744	0.7849	0.8996	0.055
Mof_H 	H 	0.7543	0.7608	0.8994	0.025
Mof_C 	C 	0.714	0.854	0.9002	-0.11
Mof_H 	H 	0.7031	0.8779	0.9003	0.066
Mof_C 	C 	0.7284	0.8625	0.9677	0.077
Mof_C 	C 	0.7298	0.8403	0.933	0.044
Mof_C 	C 	0.7299	0.7994	0.8682	-0.132
Mof_C 	C 	0.7288	0.8999	0.9667	-0.135
Mof_H 	H 	0.729	0.9126	0.9437	0.072
Mof_C 	C 	0.7435	0.8054	0.9324	-0.107
Mof_H 	H 	0.753	0.7948	0.9545	0.074
Mof_C 	C 	0.7291	0.7795	0.8311	0.41
Mof_C 	C 	0.7469	0.9802	0.0273	-0.035
Mof_H 	H 	0.7602	0.9675	0.0462	0.039
Mof_C 	C 	0.7105	0.9806	0.0266	-0.033
Mof_H 	H 	0.6979	0.9683	0.046	0.038
Mof_O 	O 	0.28804	0.2064	0.8048	-0.407
Mof_O 	O 	0.2531	0.2506	0.83023	-0.387
Mof_C 	C 	0.286	0.1657	0.8689	0.054
Mof_H 	H 	0.2969	0.1557	0.8472	0.026
Mof_C 	C 	0.256	0.2151	0.8996	0.055
Mof_H 	H 	0.2457	0.2392	0.8994	0.025
Mof_C 	C 	0.286	0.146	0.9002	-0.11
Mof_H 	H 	0.2969	0.1221	0.9003	0.066
Mof_C 	C 	0.2716	0.1375	0.9677	0.078
Mof_C 	C 	0.2702	0.1597	0.933	0.044
Mof_C 	C 	0.2701	0.2006	0.8682	-0.132
Mof_C 	C 	0.2712	0.1001	0.9667	-0.136
Mof_H 	H 	0.271	0.0874	0.9437	0.073
Mof_C 	C 	0.2565	0.1946	0.9324	-0.107
Mof_H 	H 	0.247	0.2052	0.9545	0.074
Mof_C 	C 	0.2709	0.2205	0.8311	0.41
Mof_C 	C 	0.2531	0.0198	0.0273	-0.034
Mof_H 	H 	0.2398	0.0325	0.0462	0.039
Mof_C 	C 	0.2895	0.0194	0.0266	-0.031
Mof_H 	H 	0.3021	0.0317	0.046	0.037
Mof_O 	O 	0.28804	0.7936	0.1952	-0.407
Mof_O 	O 	0.2531	0.7494	0.16977	-0.387
Mof_C 	C 	0.286	0.8343	0.1311	0.054
Mof_H 	H 	0.2969	0.8443	0.1528	0.026
Mof_C 	C 	0.256	0.7849	0.1004	0.055
Mof_H 	H 	0.2457	0.7608	0.1006	0.025
Mof_C 	C 	0.286	0.854	0.0998	-0.11
Mof_H 	H 	0.2969	0.8779	0.0997	0.066
Mof_C 	C 	0.2716	0.8625	0.0323	0.078
Mof_C 	C 	0.2702	0.8403	0.067	0.044
Mof_C 	C 	0.2701	0.7994	0.1318	-0.132
Mof_C 	C 	0.2712	0.8999	0.0333	-0.135
Mof_H 	H 	0.271	0.9126	0.0563	0.072
Mof_C 	C 	0.2565	0.8054	0.0676	-0.107
Mof_H 	H 	0.247	0.7948	0.0455	0.074
Mof_C 	C 	0.2709	0.7795	0.1689	0.41
Mof_C 	C 	0.2531	0.9802	0.9727	-0.035
Mof_H 	H 	0.2398	0.9675	0.9538	0.039
Mof_C 	C 	0.2895	0.9806	0.9734	-0.033
Mof_H 	H 	0.3021	0.9683	0.954	0.038
Mof_O 	O 	0.71196	0.2064	0.1952	-0.407
Mof_O 	O 	0.7469	0.2506	0.16977	-0.387
Mof_C 	C 	0.714	0.1657	0.1311	0.054
Mof_H 	H 	0.7031	0.1557	0.1528	0.026
Mof_C 	C 	0.744	0.2151	0.1004	0.055
Mof_H 	H 	0.7543	0.2392	0.1006	0.025
Mof_C 	C 	0.714	0.146	0.0998	-0.11
Mof_H 	H 	0.7031	0.1221	0.0997	0.066
Mof_C 	C 	0.7284	0.1375	0.0323	0.078
Mof_C 	C 	0.7298	0.1597	0.067	0.044
Mof_C 	C 	0.7299	0.2006	0.1318	-0.132
Mof_C 	C 	0.7288	0.1001	0.0333	-0.136
Mof_H 	H 	0.729	0.0874	0.0563	0.072
Mof_C 	C 	0.7435	0.1946	0.0676	-0.107
Mof_H 	H 	0.753	0.2052	0.0455	0.074
Mof_C 	C 	0.7291	0.2205	0.1689	0.41
Mof_C 	C 	0.7469	0.0198	0.9727	-0.034
Mof_H 	H 	0.7602	0.0325	0.9538	0.039
Mof_C 	C 	0.7105	0.0194	0.9734	-0.032
Mof_H 	H 	0.6979	0.0317	0.954	0.037
Mof_O 	O 	0.8048	0.71196	0.7936	-0.407
Mof_O 	O 	0.83023	0.7469	0.7494	-0.387
Mof_C 	C 	0.8689	0.714	0.8343	0.054
Mof_H 	H 	0.8472	0.7031	0.8443	0.026
Mof_C 	C 	0.8996	0.744	0.7849	0.055
Mof_H 	H 	0.8994	0.7543	0.7608	0.025
Mof_C 	C 	0.9002	0.714	0.854	-0.11
Mof_H 	H 	0.9003	0.7031	0.8779	0.066
Mof_C 	C 	0.9677	0.7284	0.8625	0.077
Mof_C 	C 	0.933	0.7298	0.8403	0.044
Mof_C 	C 	0.8682	0.7299	0.7994	-0.132
Mof_C 	C 	0.9667	0.7288	0.8999	-0.135
Mof_H 	H 	0.9437	0.729	0.9126	0.072
Mof_C 	C 	0.9324	0.7435	0.8054	-0.107
Mof_H 	H 	0.9545	0.753	0.7948	0.074
Mof_C 	C 	0.8311	0.7291	0.7795	0.41
Mof_C 	C 	0.0273	0.7469	0.9802	-0.035
Mof_H 	H 	0.0462	0.7602	0.9675	0.039
Mof_C 	C 	0.0266	0.7105	0.9806	-0.033
Mof_H 	H 	0.046	0.6979	0.9683	0.038
Mof_O 	O 	0.8048	0.28804	0.2064	-0.407
Mof_O 	O 	0.83023	0.2531	0.2506	-0.387
Mof_C 	C 	0.8689	0.286	0.1657	0.054
Mof_H 	H 	0.8472	0.2969	0.1557	0.026
Mof_C 	C 	0.8996	0.256	0.2151	0.055
Mof_H 	H 	0.8994	0.2457	0.2392	0.025
Mof_C 	C 	0.9002	0.286	0.146	-0.11
Mof_H 	H 	0.9003	0.2969	0.1221	0.066
Mof_C 	C 	0.9677	0.2716	0.1375	0.078
Mof_C 	C 	0.933	0.2702	0.1597	0.044
Mof_C 	C 	0.8682	0.2701	0.2006	-0.132
Mof_C 	C 	0.9667	0.2712	0.1001	-0.136
Mof_H 	H 	0.9437	0.271	0.0874	0.073
Mof_C 	C 	0.9324	0.2565	0.1946	-0.107
Mof_H 	H 	0.9545	0.247	0.2052	0.074
Mof_C 	C 	0.8311	0.2709	0.2205	0.41
Mof_C 	C 	0.0273	0.2531	0.0198	-0.034
Mof_H 	H 	0.0462	0.2398	0.0325	0.039
Mof_C 	C 	0.0266	0.2895	0.0194	-0.031
Mof_H 	H 	0.046	0.3021	0.0317	0.037
Mof_O 	O 	0.1952	0.28804	0.7936	-0.407
Mof_O 	O 	0.16977	0.2531	0.7494	-0.387
Mof_C 	C 	0.1311	0.286	0.8343	0.054
Mof_H 	H 	0.1528	0.2969	0.8443	0.026
Mof_C 	C 	0.1004	0.256	0.7849	0.055
Mof_H 	H 	0.1006	0.2457	0.7608	0.025
Mof_C 	C 	0.0998	0.286	0.854	-0.11
Mof_H 	H 	0.0997	0.2969	0.8779	0.066
Mof_C 	C 	0.0323	0.2716	0.8625	0.078
Mof_C 	C 	0.067	0.2702	0.8403	0.044
Mof_C 	C 	0.1318	0.2701	0.7994	-0.132
Mof_C 	C 	0.0333	0.2712	0.8999	-0.135
Mof_H 	H 	0.0563	0.271	0.9126	0.072
Mof_C 	C 	0.0676	0.2565	0.8054	-0.107
Mof_H 	H 	0.0455	0.247	0.7948	0.074
Mof_C 	C 	0.1689	0.2709	0.7795	0.41
Mof_C 	C 	0.9727	0.2531	0.9802	-0.035
Mof_H 	H 	0.9538	0.2398	0.9675	0.039
Mof_C 	C 	0.9734	0.2895	0.9806	-0.033
Mof_H 	H 	0.954	0.3021	0.9683	0.038
Mof_O 	O 	0.1952	0.71196	0.2064	-0.407
Mof_O 	O 	0.16977	0.7469	0.2506	-0.387
Mof_C 	C 	0.1311	0.714	0.1657	0.054
Mof_H 	H 	0.1528	0.7031	0.1557	0.026
Mof_C 	C 	0.1004	0.744	0.2151	0.055
Mof_H 	H 	0.1006	0.7543	0.2392	0.025
Mof_C 	C 	0.0998	0.714	0.146	-0.11
Mof_H 	H 	0.0997	0.7031	0.1221	0.066
Mof_C 	C 	0.0323	0.7284	0.1375	0.078
Mof_C 	C 	0.067	0.7298	0.1597	0.044
Mof_C 	C 	0.1318	0.7299	0.2006	-0.132
Mof_C 	C 	0.0333	0.7288	0.1001	-0.136
Mof_H 	H 	0.0563	0.729	0.0874	0.072
Mof_C 	C 	0.0676	0.7435	0.1946	-0.107
Mof_H 	H 	0.0455	0.753	0.2052	0.074
Mof_C 	C 	0.1689	0.7291	0.2205	0.41
Mof_C 	C 	0.9727	0.7469	0.0198	-0.034
Mof_H 	H 	0.9538	0.7602	0.0325	0.039
Mof_C 	C 	0.9734	0.7105	0.0194	-0.032
Mof_H 	H 	0.954	0.6979	0.0317	0.037
Mof_O 	O 	0.7936	0.8048	0.71196	-0.407
Mof_O 	O 	0.7494	0.83023	0.7469	-0.387
Mof_C 	C 	0.8343	0.8689	0.714	0.054
Mof_H 	H 	0.8443	0.8472	0.7031	0.026
Mof_C 	C 	0.7849	0.8996	0.744	0.055
Mof_H 	H 	0.7608	0.8994	0.7543	0.025
Mof_C 	C 	0.854	0.9002	0.714	-0.11
Mof_H 	H 	0.8779	0.9003	0.7031	0.066
Mof_C 	C 	0.8625	0.9677	0.7284	0.077
Mof_C 	C 	0.8403	0.933	0.7298	0.044
Mof_C 	C 	0.7994	0.8682	0.7299	-0.132
Mof_C 	C 	0.8999	0.9667	0.7288	-0.135
Mof_H 	H 	0.9126	0.9437	0.729	0.072
Mof_C 	C 	0.8054	0.9324	0.7435	-0.107
Mof_H 	H 	0.7948	0.9545	0.753	0.074
Mof_C 	C 	0.7795	0.8311	0.7291	0.41
Mof_C 	C 	0.9802	0.0273	0.7469	-0.035
Mof_H 	H 	0.9675	0.0462	0.7602	0.039
Mof_C 	C 	0.9806	0.0266	0.7105	-0.033
Mof_H 	H 	0.9683	0.046	0.6979	0.038
Mof_O 	O 	0.2064	0.8048	0.28804	-0.407
Mof_O 	O 	0.2506	0.83023	0.2531	-0.387
Mof_C 	C 	0.1657	0.8689	0.286	0.054
Mof_H 	H 	0.1557	0.8472	0.2969	0.026
Mof_C 	C 	0.2151	0.8996	0.256	0.055
Mof_H 	H 	0.2392	0.8994	0.2457	0.025
Mof_C 	C 	0.146	0.9002	0.286	-0.11
Mof_H 	H 	0.1221	0.9003	0.2969	0.066
Mof_C 	C 	0.1375	0.9677	0.2716	0.078
Mof_C 	C 	0.1597	0.933	0.2702	0.044
Mof_C 	C 	0.2006	0.8682	0.2701	-0.132
Mof_C 	C 	0.1001	0.9667	0.2712	-0.136
Mof_H 	H 	0.0874	0.9437	0.271	0.073
Mof_C 	C 	0.1946	0.9324	0.2565	-0.107
Mof_H 	H 	0.2052	0.9545	0.247	0.074
Mof_C 	C 	0.2205	0.8311	0.2709	0.41
Mof_C 	C 	0.0198	0.0273	0.2531	-0.034
Mof_H 	H 	0.0325	0.0462	0.2398	0.039
Mof_C 	C 	0.0194	0.0266	0.2895	-0.031
Mof_H 	H 	0.0317	0.046	0.3021	0.037
Mof_O 	O 	0.7936	0.1952	0.28804	-0.407
Mof_O 	O 	0.7494	0.16977	0.2531	-0.387
Mof_C 	C 	0.8343	0.1311	0.286	0.054
Mof_H 	H 	0.8443	0.1528	0.2969	0.026
Mof_C 	C 	0.7849	0.1004	0.256	0.055
Mof_H 	H 	0.7608	0.1006	0.2457	0.025
Mof_C 	C 	0.854	0.0998	0.286	-0.11
Mof_H 	H 	0.8779	0.0997	0.2969	0.066
Mof_C 	C 	0.8625	0.0323	0.2716	0.078
Mof_C 	C 	0.8403	0.067	0.2702	0.044
Mof_C 	C 	0.7994	0.1318	0.2701	-0.132
Mof_C 	C 	0.8999	0.0333	0.2712	-0.135
Mof_H 	H 	0.9126	0.0563	0.271	0.072
Mof_C 	C 	0.8054	0.0676	0.2565	-0.107
Mof_H 	H 	0.7948	0.0455	0.247	0.074
Mof_C 	C 	0.7795	0.1689	0.2709	0.41
Mof_C 	C 	0.9802	0.9727	0.2531	-0.035
Mof_H 	H 	0.9675	0.9538	0.2398	0.039
Mof_C 	C 	0.9806	0.9734	0.2895	-0.033
Mof_H 	H 	0.9683	0.954	0.3021	0.038
Mof_O 	O 	0.2064	0.1952	0.71196	-0.407
Mof_O 	O 	0.2506	0.16977	0.7469	-0.387
Mof_C 	C 	0.1657	0.1311	0.714	0.054
Mof_H 	H 	0.1557	0.1528	0.7031	0.026
Mof_C 	C 	0.2151	0.1004	0.744	0.055
Mof_H 	H 	0.2392	0.1006	0.7543	0.025
Mof_C 	C 	0.146	0.0998	0.714	-0.11
Mof_H 	H 	0.1221	0.0997	0.7031	0.066
Mof_C 	C 	0.1375	0.0323	0.7284	0.078
Mof_C 	C 	0.1597	0.067	0.7298	0.044
Mof_C 	C 	0.2006	0.1318	0.7299	-0.132
Mof_C 	C 	0.1001	0.0333	0.7288	-0.136
Mof_H 	H 	0.0874	0.0563	0.729	0.072
Mof_C 	C 	0.1946	0.0676	0.7435	-0.107
Mof_H 	H 	0.2052	0.0455	0.753	0.074
Mof_C 	C 	0.2205	0.1689	0.7291	0.41
Mof_C 	C 	0.0198	0.9727	0.7469	-0.034
Mof_H 	H 	0.0325	0.9538	0.7602	0.039
Mof_C 	C 	0.0194	0.9734	0.7105	-0.032
Mof_H 	H 	0.0317	0.954	0.6979	0.037
Mof_O 	O 	0.2936	0.21196	0.6952	-0.407
Mof_O 	O 	0.2494	0.2469	0.66977	-0.387
Mof_C 	C 	0.3343	0.214	0.6311	0.054
Mof_H 	H 	0.3443	0.2031	0.6528	0.026
Mof_C 	C 	0.2849	0.244	0.6004	0.055
Mof_H 	H 	0.2608	0.2543	0.6006	0.025
Mof_C 	C 	0.354	0.214	0.5998	-0.11
Mof_H 	H 	0.3779	0.2031	0.5997	0.066
Mof_C 	C 	0.3625	0.2284	0.5323	0.078
Mof_C 	C 	0.3403	0.2298	0.567	0.044
Mof_C 	C 	0.2994	0.2299	0.6318	-0.132
Mof_C 	C 	0.3999	0.2288	0.5333	-0.135
Mof_H 	H 	0.4126	0.229	0.5563	0.072
Mof_C 	C 	0.3054	0.2435	0.5676	-0.107
Mof_H 	H 	0.2948	0.253	0.5455	0.074
Mof_C 	C 	0.2795	0.2291	0.6689	0.41
Mof_C 	C 	0.4802	0.2469	0.4727	-0.034
Mof_H 	H 	0.4675	0.2602	0.4538	0.039
Mof_C 	C 	0.4806	0.2105	0.4734	-0.032
Mof_H 	H 	0.4683	0.1979	0.454	0.038
Mof_O 	O 	0.7064	0.78804	0.6952	-0.407
Mof_O 	O 	0.7506	0.7531	0.66977	-0.387
Mof_C 	C 	0.6657	0.786	0.6311	0.054
Mof_H 	H 	0.6557	0.7969	0.6528	0.026
Mof_C 	C 	0.7151	0.756	0.6004	0.055
Mof_H 	H 	0.7392	0.7457	0.6006	0.025
Mof_C 	C 	0.646	0.786	0.5998	-0.11
Mof_H 	H 	0.6221	0.7969	0.5997	0.066
Mof_C 	C 	0.6375	0.7716	0.5323	0.078
Mof_C 	C 	0.6597	0.7702	0.567	0.044
Mof_C 	C 	0.7006	0.7701	0.6318	-0.132
Mof_C 	C 	0.6001	0.7712	0.5333	-0.135
Mof_H 	H 	0.5874	0.771	0.5563	0.072
Mof_C 	C 	0.6946	0.7565	0.5676	-0.107
Mof_H 	H 	0.7052	0.747	0.5455	0.074
Mof_C 	C 	0.7205	0.7709	0.6689	0.41
Mof_C 	C 	0.5198	0.7531	0.4727	-0.034
Mof_H 	H 	0.5325	0.7398	0.4538	0.039
Mof_C 	C 	0.5194	0.7895	0.4734	-0.032
Mof_H 	H 	0.5317	0.8021	0.454	0.038
Mof_O 	O 	0.2936	0.78804	0.3048	-0.407
Mof_O 	O 	0.2494	0.7531	0.33023	-0.387
Mof_C 	C 	0.3343	0.786	0.3689	0.054
Mof_H 	H 	0.3443	0.7969	0.3472	0.026
Mof_C 	C 	0.2849	0.756	0.3996	0.055
Mof_H 	H 	0.2608	0.7457	0.3994	0.025
Mof_C 	C 	0.354	0.786	0.4002	-0.11
Mof_H 	H 	0.3779	0.7969	0.4003	0.066
Mof_C 	C 	0.3625	0.7716	0.4677	0.078
Mof_C 	C 	0.3403	0.7702	0.433	0.044
Mof_C 	C 	0.2994	0.7701	0.3682	-0.132
Mof_C 	C 	0.3999	0.7712	0.4667	-0.135
Mof_H 	H 	0.4126	0.771	0.4437	0.072
Mof_C 	C 	0.3054	0.7565	0.4324	-0.107
Mof_H 	H 	0.2948	0.747	0.4545	0.074
Mof_C 	C 	0.2795	0.7709	0.3311	0.41
Mof_C 	C 	0.4802	0.7531	0.5273	-0.034
Mof_H 	H 	0.4675	0.7398	0.5462	0.039
Mof_C 	C 	0.4806	0.7895	0.5266	-0.032
Mof_H 	H 	0.4683	0.8021	0.546	0.038
Mof_O 	O 	0.7064	0.21196	0.3048	-0.407
Mof_O 	O 	0.7506	0.2469	0.33023	-0.387
Mof_C 	C 	0.6657	0.214	0.3689	0.054
Mof_H 	H 	0.6557	0.2031	0.3472	0.026
Mof_C 	C 	0.7151	0.244	0.3996	0.055
Mof_H 	H 	0.7392	0.2543	0.3994	0.025
Mof_C 	C 	0.646	0.214	0.4002	-0.11
Mof_H 	H 	0.6221	0.2031	0.4003	0.066
Mof_C 	C 	0.6375	0.2284	0.4677	0.078
Mof_C 	C 	0.6597	0.2298	0.433	0.044
Mof_C 	C 	0.7006	0.2299	0.3682	-0.132
Mof_C 	C 	0.6001	0.2288	0.4667	-0.135
Mof_H 	H 	0.5874	0.229	0.4437	0.072
Mof_C 	C 	0.6946	0.2435	0.4324	-0.107
Mof_H 	H 	0.7052	0.253	0.4545	0.074
Mof_C 	C 	0.7205	0.2291	0.3311	0.41
Mof_C 	C 	0.5198	0.2469	0.5273	-0.034
Mof_H 	H 	0.5325	0.2602	0.5462	0.039
Mof_C 	C 	0.5194	0.2105	0.5266	-0.032
Mof_H 	H 	0.5317	0.1979	0.546	0.038
Mof_O 	O 	0.21196	0.3048	0.7064	-0.407
Mof_O 	O 	0.2469	0.33023	0.7506	-0.387
Mof_C 	C 	0.214	0.3689	0.6657	0.054
Mof_H 	H 	0.2031	0.3472	0.6557	0.026
Mof_C 	C 	0.244	0.3996	0.7151	0.055
Mof_H 	H 	0.2543	0.3994	0.7392	0.025
Mof_C 	C 	0.214	0.4002	0.646	-0.11
Mof_H 	H 	0.2031	0.4003	0.6221	0.066
Mof_C 	C 	0.2284	0.4677	0.6375	0.078
Mof_C 	C 	0.2298	0.433	0.6597	0.044
Mof_C 	C 	0.2299	0.3682	0.7006	-0.132
Mof_C 	C 	0.2288	0.4667	0.6001	-0.135
Mof_H 	H 	0.229	0.4437	0.5874	0.072
Mof_C 	C 	0.2435	0.4324	0.6946	-0.107
Mof_H 	H 	0.253	0.4545	0.7052	0.074
Mof_C 	C 	0.2291	0.3311	0.7205	0.41
Mof_C 	C 	0.2469	0.5273	0.5198	-0.034
Mof_H 	H 	0.2602	0.5462	0.5325	0.039
Mof_C 	C 	0.2105	0.5266	0.5194	-0.032
Mof_H 	H 	0.1979	0.546	0.5317	0.038
Mof_O 	O 	0.78804	0.3048	0.2936	-0.407
Mof_O 	O 	0.7531	0.33023	0.2494	-0.387
Mof_C 	C 	0.786	0.3689	0.3343	0.054
Mof_H 	H 	0.7969	0.3472	0.3443	0.026
Mof_C 	C 	0.756	0.3996	0.2849	0.055
Mof_H 	H 	0.7457	0.3994	0.2608	0.025
Mof_C 	C 	0.786	0.4002	0.354	-0.11
Mof_H 	H 	0.7969	0.4003	0.3779	0.066
Mof_C 	C 	0.7716	0.4677	0.3625	0.078
Mof_C 	C 	0.7702	0.433	0.3403	0.044
Mof_C 	C 	0.7701	0.3682	0.2994	-0.132
Mof_C 	C 	0.7712	0.4667	0.3999	-0.135
Mof_H 	H 	0.771	0.4437	0.4126	0.072
Mof_C 	C 	0.7565	0.4324	0.3054	-0.107
Mof_H 	H 	0.747	0.4545	0.2948	0.074
Mof_C 	C 	0.7709	0.3311	0.2795	0.41
Mof_C 	C 	0.7531	0.5273	0.4802	-0.034
Mof_H 	H 	0.7398	0.5462	0.4675	0.039
Mof_C 	C 	0.7895	0.5266	0.4806	-0.032
Mof_H 	H 	0.8021	0.546	0.4683	0.038
Mof_O 	O 	0.78804	0.6952	0.7064	-0.407
Mof_O 	O 	0.7531	0.66977	0.7506	-0.387
Mof_C 	C 	0.786	0.6311	0.6657	0.054
Mof_H 	H 	0.7969	0.6528	0.6557	0.026
Mof_C 	C 	0.756	0.6004	0.7151	0.055
Mof_H 	H 	0.7457	0.6006	0.7392	0.025
Mof_C 	C 	0.786	0.5998	0.646	-0.11
Mof_H 	H 	0.7969	0.5997	0.6221	0.066
Mof_C 	C 	0.7716	0.5323	0.6375	0.078
Mof_C 	C 	0.7702	0.567	0.6597	0.044
Mof_C 	C 	0.7701	0.6318	0.7006	-0.132
Mof_C 	C 	0.7712	0.5333	0.6001	-0.135
Mof_H 	H 	0.771	0.5563	0.5874	0.072
Mof_C 	C 	0.7565	0.5676	0.6946	-0.107
Mof_H 	H 	0.747	0.5455	0.7052	0.074
Mof_C 	C 	0.7709	0.6689	0.7205	0.41
Mof_C 	C 	0.7531	0.4727	0.5198	-0.034
Mof_H 	H 	0.7398	0.4538	0.5325	0.039
Mof_C 	C 	0.7895	0.4734	0.5194	-0.032
Mof_H 	H 	0.8021	0.454	0.5317	0.038
Mof_O 	O 	0.21196	0.6952	0.2936	-0.407
Mof_O 	O 	0.2469	0.66977	0.2494	-0.387
Mof_C 	C 	0.214	0.6311	0.3343	0.054
Mof_H 	H 	0.2031	0.6528	0.3443	0.026
Mof_C 	C 	0.244	0.6004	0.2849	0.055
Mof_H 	H 	0.2543	0.6006	0.2608	0.025
Mof_C 	C 	0.214	0.5998	0.354	-0.11
Mof_H 	H 	0.2031	0.5997	0.3779	0.066
Mof_C 	C 	0.2284	0.5323	0.3625	0.078
Mof_C 	C 	0.2298	0.567	0.3403	0.044
Mof_C 	C 	0.2299	0.6318	0.2994	-0.132
Mof_C 	C 	0.2288	0.5333	0.3999	-0.135
Mof_H 	H 	0.229	0.5563	0.4126	0.072
Mof_C 	C 	0.2435	0.5676	0.3054	-0.107
Mof_H 	H 	0.253	0.5455	0.2948	0.074
Mof_C 	C 	0.2291	0.6689	0.2795	0.41
Mof_C 	C 	0.2469	0.4727	0.4802	-0.034
Mof_H 	H 	0.2602	0.4538	0.4675	0.039
Mof_C 	C 	0.2105	0.4734	0.4806	-0.032
Mof_H 	H 	0.1979	0.454	0.4683	0.038
Mof_O 	O 	0.3048	0.2936	0.78804	-0.407
Mof_O 	O 	0.33023	0.2494	0.7531	-0.387
Mof_C 	C 	0.3689	0.3343	0.786	0.054
Mof_H 	H 	0.3472	0.3443	0.7969	0.026
Mof_C 	C 	0.3996	0.2849	0.756	0.055
Mof_H 	H 	0.3994	0.2608	0.7457	0.025
Mof_C 	C 	0.4002	0.354	0.786	-0.11
Mof_H 	H 	0.4003	0.3779	0.7969	0.066
Mof_C 	C 	0.4677	0.3625	0.7716	0.078
Mof_C 	C 	0.433	0.3403	0.7702	0.044
Mof_C 	C 	0.3682	0.2994	0.7701	-0.132
Mof_C 	C 	0.4667	0.3999	0.7712	-0.135
Mof_H 	H 	0.4437	0.4126	0.771	0.072
Mof_C 	C 	0.4324	0.3054	0.7565	-0.107
Mof_H 	H 	0.4545	0.2948	0.747	0.074
Mof_C 	C 	0.3311	0.2795	0.7709	0.41
Mof_C 	C 	0.5273	0.4802	0.7531	-0.034
Mof_H 	H 	0.5462	0.4675	0.7398	0.039
Mof_C 	C 	0.5266	0.4806	0.7895	-0.032
Mof_H 	H 	0.546	0.4683	0.8021	0.038
Mof_O 	O 	0.3048	0.7064	0.21196	-0.407
Mof_O 	O 	0.33023	0.7506	0.2469	-0.387
Mof_C 	C 	0.3689	0.6657	0.214	0.054
Mof_H 	H 	0.3472	0.6557	0.2031	0.026
Mof_C 	C 	0.3996	0.7151	0.244	0.055
Mof_H 	H 	0.3994	0.7392	0.2543	0.025
Mof_C 	C 	0.4002	0.646	0.214	-0.11
Mof_H 	H 	0.4003	0.6221	0.2031	0.066
Mof_C 	C 	0.4677	0.6375	0.2284	0.078
Mof_C 	C 	0.433	0.6597	0.2298	0.044
Mof_C 	C 	0.3682	0.7006	0.2299	-0.132
Mof_C 	C 	0.4667	0.6001	0.2288	-0.135
Mof_H 	H 	0.4437	0.5874	0.229	0.072
Mof_C 	C 	0.4324	0.6946	0.2435	-0.107
Mof_H 	H 	0.4545	0.7052	0.253	0.074
Mof_C 	C 	0.3311	0.7205	0.2291	0.41
Mof_C 	C 	0.5273	0.5198	0.2469	-0.034
Mof_H 	H 	0.5462	0.5325	0.2602	0.039
Mof_C 	C 	0.5266	0.5194	0.2105	-0.032
Mof_H 	H 	0.546	0.5317	0.1979	0.038
Mof_O 	O 	0.6952	0.2936	0.21196	-0.407
Mof_O 	O 	0.66977	0.2494	0.2469	-0.387
Mof_C 	C 	0.6311	0.3343	0.214	0.054
Mof_H 	H 	0.6528	0.3443	0.2031	0.026
Mof_C 	C 	0.6004	0.2849	0.244	0.055
Mof_H 	H 	0.6006	0.2608	0.2543	0.025
Mof_C 	C 	0.5998	0.354	0.214	-0.11
Mof_H 	H 	0.5997	0.3779	0.2031	0.066
Mof_C 	C 	0.5323	0.3625	0.2284	0.078
Mof_C 	C 	0.567	0.3403	0.2298	0.044
Mof_C 	C 	0.6318	0.2994	0.2299	-0.132
Mof_C 	C 	0.5333	0.3999	0.2288	-0.135
Mof_H 	H 	0.5563	0.4126	0.229	0.072
Mof_C 	C 	0.5676	0.3054	0.2435	-0.107
Mof_H 	H 	0.5455	0.2948	0.253	0.074
Mof_C 	C 	0.6689	0.2795	0.2291	0.41
Mof_C 	C 	0.4727	0.4802	0.2469	-0.034
Mof_H 	H 	0.4538	0.4675	0.2602	0.039
Mof_C 	C 	0.4734	0.4806	0.2105	-0.032
Mof_H 	H 	0.454	0.4683	0.1979	0.038
Mof_O 	O 	0.6952	0.7064	0.78804	-0.407
Mof_O 	O 	0.66977	0.7506	0.7531	-0.387
Mof_C 	C 	0.6311	0.6657	0.786	0.054
Mof_H 	H 	0.6528	0.6557	0.7969	0.026
Mof_C 	C 	0.6004	0.7151	0.756	0.055
Mof_H 	H 	0.6006	0.7392	0.7457	0.025
Mof_C 	C 	0.5998	0.646	0.786	-0.11
Mof_H 	H 	0.5997	0.6221	0.7969	0.066
Mof_C 	C 	0.5323	0.6375	0.7716	0.078
Mof_C 	C 	0.567	0.6597	0.7702	0.044
Mof_C 	C 	0.6318	0.7006	0.7701	-0.132
Mof_C 	C 	0.5333	0.6001	0.7712	-0.135
Mof_H 	H 	0.5563	0.5874	0.771	0.072
Mof_C 	C 	0.5676	0.6946	0.7565	-0.107
Mof_H 	H 	0.5455	0.7052	0.747	0.074
Mof_C 	C 	0.6689	0.7205	0.7709	0.41
Mof_C 	C 	0.4727	0.5198	0.7531	-0.034
Mof_H 	H 	0.4538	0.5325	0.7398	0.039
Mof_C 	C 	0.4734	0.5194	0.7895	-0.032
Mof_H 	H 	0.454	0.5317	0.8021	0.038
Mof_Fe	Fe	0.28746	0.21254	0.25	0.968
Mof_Fe	Fe	0.71254	0.78746	0.25	0.968
Mof_Fe	Fe	0.71254	0.21254	0.75	0.968
Mof_Fe	Fe	0.28746	0.78746	0.75	0.968
Mof_Fe	Fe	0.25	0.28746	0.21254	0.968
Mof_Fe	Fe	0.25	0.71254	0.78746	0.968
Mof_Fe	Fe	0.75	0.71254	0.21254	0.968
Mof_Fe	Fe	0.75	0.28746	0.78746	0.968
Mof_Fe	Fe	0.21254	0.25	0.28746	0.968
Mof_Fe	Fe	0.78746	0.25	0.71254	0.968
Mof_Fe	Fe	0.21254	0.75	0.71254	0.968
Mof_Fe	Fe	0.78746	0.75	0.28746	0.968
Mof_Fe	Fe	0.71254	0.78746	0.75	0.968
Mof_Fe	Fe	0.28746	0.21254	0.75	0.968
Mof_Fe	Fe	0.28746	0.78746	0.25	0.968
Mof_Fe	Fe	0.71254	0.21254	0.25	0.968
Mof_Fe	Fe	0.75	0.71254	0.78746	0.968
Mof_Fe	Fe	0.75	0.28746	0.21254	0.968
Mof_Fe	Fe	0.25	0.28746	0.78746	0.968
Mof_Fe	Fe	0.25	0.71254	0.21254	0.968
Mof_Fe	Fe	0.78746	0.75	0.71254	0.968
Mof_Fe	Fe	0.21254	0.75	0.28746	0.968
Mof_Fe	Fe	0.78746	0.25	0.28746	0.968
Mof_Fe	Fe	0.21254	0.25	0.71254	0.968
Mof_O 	O 	0.25	0.25	0.25	-0.531
Mof_O 	O 	0.75	0.75	0.25	-0.531
Mof_O 	O 	0.75	0.25	0.75	-0.531
Mof_O 	O 	0.25	0.75	0.75	-0.531
Mof_O 	O 	0.75	0.75	0.75	-0.531
Mof_O 	O 	0.25	0.25	0.75	-0.531
Mof_O 	O 	0.25	0.75	0.25	-0.531
Mof_O 	O 	0.75	0.25	0.25	-0.531
Mof_C 	C 	0.271	0.0805	-0	0.071
Mof_C 	C 	0.2722	0.0407	-0	-0.003
Mof_N 	N 	0.2717	0.1576	-0	-0.129
Mof_C 	C 	0.729	0.9195	-0	0.07
Mof_C 	C 	0.7278	0.9593	-0	-0.001
Mof_N 	N 	0.7283	0.8424	-0	-0.129
Mof_C 	C 	0.729	0.0805	-0	0.071
Mof_C 	C 	0.7278	0.0407	-0	-0.003
Mof_N 	N 	0.7283	0.1576	-0	-0.129
Mof_C 	C 	0.271	0.9195	-0	0.07
Mof_C 	C 	0.2722	0.9593	-0	-0.001
Mof_N 	N 	0.2717	0.8424	-0	-0.129
Mof_C 	C 	-2.91157e-33	0.271	0.0805	0.071
Mof_C 	C 	-3.82966e-34	0.2722	0.0407	-0.003
Mof_N 	N 	2.73317e-33	0.2717	0.1576	-0.129
Mof_C 	C 	3.44757e-33	0.729	0.9195	0.07
Mof_C 	C 	-4.97227e-33	0.7278	0.9593	-0.001
Mof_N 	N 	-5.41057e-33	0.7283	0.8424	-0.129
Mof_C 	C 	7.79976e-33	0.729	0.0805	0.071
Mof_C 	C 	3.90157e-33	0.7278	0.0407	-0.003
Mof_N 	N 	2.73317e-33	0.7283	0.1576	-0.129
Mof_C 	C 	-5.12149e-33	0.271	0.9195	0.07
Mof_C 	C 	-4.97227e-33	0.2722	0.9593	-0.001
Mof_N 	N 	-5.41057e-33	0.2717	0.8424	-0.129
Mof_C 	C 	0.0805	-2.14227e-33	0.271	0.071
Mof_C 	C 	0.0407	0	0.2722	-0.003
Mof_N 	N 	0.1576	0	0.2717	-0.129
Mof_C 	C 	0.9195	0	0.729	0.07
Mof_C 	C 	0.9593	0	0.7278	-0.001
Mof_N 	N 	0.8424	0	0.7283	-0.129
Mof_C 	C 	0.0805	0	0.729	0.071
Mof_C 	C 	0.0407	0	0.7278	-0.003
Mof_N 	N 	0.1576	0	0.7283	-0.129
Mof_C 	C 	0.9195	-2.14227e-33	0.271	0.07
Mof_C 	C 	0.9593	0	0.2722	-0.001
Mof_N 	N 	0.8424	0	0.2717	-0.129
Mof_C 	C 	0.5805	0.771	0.5	0.07
Mof_C 	C 	0.5407	0.7722	0.5	-0.002
Mof_N 	N 	0.6576	0.7717	0.5	-0.129
Mof_C 	C 	0.4195	0.229	0.5	0.07
Mof_C 	C 	0.4593	0.2278	0.5	-0.002
Mof_N 	N 	0.3424	0.2283	0.5	-0.129
Mof_C 	C 	0.5805	0.229	0.5	0.07
Mof_C 	C 	0.5407	0.2278	0.5	-0.002
Mof_N 	N 	0.6576	0.2283	0.5	-0.129
Mof_C 	C 	0.4195	0.771	0.5	0.07
Mof_C 	C 	0.4593	0.7722	0.5	-0.002
Mof_N 	N 	0.3424	0.7717	0.5	-0.129
Mof_C 	C 	0.771	0.5	0.4195	0.07
Mof_C 	C 	0.7722	0.5	0.4593	-0.002
Mof_N 	N 	0.7717	0.5	0.3424	-0.129
Mof_C 	C 	0.229	0.5	0.5805	0.07
Mof_C 	C 	0.2278	0.5	0.5407	-0.002
Mof_N 	N 	0.2283	0.5	0.6576	-0.129
Mof_C 	C 	0.229	0.5	0.4195	0.07
Mof_C 	C 	0.2278	0.5	0.4593	-0.002
Mof_N 	N 	0.2283	0.5	0.3424	-0.129
Mof_C 	C 	0.771	0.5	0.5805	0.07
Mof_C 	C 	0.7722	0.5	0.5407	-0.002
Mof_N 	N 	0.7717	0.5	0.6576	-0.129
Mof_C 	C 	0.5	0.5805	0.229	0.07
Mof_C 	C 	0.5	0.5407	0.2278	-0.002
Mof_N 	N 	0.5	0.6576	0.2283	-0.129
Mof_C 	C 	0.5	0.4195	0.771	0.07
Mof_C 	C 	0.5	0.4593	0.7722	-0.002
Mof_N 	N 	0.5	0.3424	0.7717	-0.129
Mof_C 	C 	0.5	0.5805	0.771	0.07
Mof_C 	C 	0.5	0.5407	0.7722	-0.002
Mof_N 	N 	0.5	0.6576	0.7717	-0.129
Mof_C 	C 	0.5	0.4195	0.229	0.07
Mof_C 	C 	0.5	0.4593	0.2278	-0.002
Mof_N 	N 	0.5	0.3424	0.2283	-0.129
_end
