data_functionalizedCrystal
_audit_creation_method	'EQeq! by Chris Wilmer'
_symmetry_space_group_name_H-M	'P1'
_symmetry_Int_Tables_number	1
_symmetry_cell_setting	triclinic
loop_
_symmetry_equiv_pos_as_xyz
  x,y,z
_cell_length_a	14.9344
_cell_length_b	14.9344
_cell_length_c	19.1332
_cell_angle_alpha	90
_cell_angle_beta	90
_cell_angle_gamma	90
loop_
_atom_site_label
_atom_site_type_symbol
_atom_site_fract_x
_atom_site_fract_y
_atom_site_fract_z
_atom_site_charge
Mof_O 	O 	0.21583	0.12053	0.29456	-0.39
Mof_O 	O 	0.18176	0.13385	0.18088	-0.388
Mof_C 	C 	0.3074	0.1756	0.0284	-0.008
Mof_H 	H 	0.3693	0.1833	0.0458	-0.04
Mof_H 	H 	0.2843	0.1177	0.0461	-0.041
Mof_C 	C 	0.3075	0.1748	0.949	-0.012
Mof_H 	H 	0.2842	0.1167	0.9319	-0.029
Mof_H 	H 	0.3696	0.1819	0.9316	-0.03
Mof_C 	C 	0.3353	0.214	0.948	-0.024
Mof_H 	H 	0.3438	0.1522	0.9305	0.026
Mof_H 	H 	0.251	0.1145	0.9307	0.033
Mof_C 	C 	0.2863	0.3356	0.027	-0.023
Mof_H 	H 	0.2504	0.1138	0.0442	0.04
Mof_H 	H 	0.3442	0.1517	0.0441	0.032
Mof_C 	C 	0.158	0.236	0.0279	-0.019
Mof_H 	H 	0.322	0.1347	0.0452	0.039
Mof_H 	H 	0.3816	0.2159	0.0455	0.049
Mof_C 	C 	0.2638	0.1575	0.9489	-0.018
Mof_H 	H 	0.3821	0.2153	0.9319	0.038
Mof_H 	H 	0.3215	0.1336	0.9316	0.03
Mof_C 	C 	0.1757	0.0963	0.2395	0.344
Mof_C 	C 	0.1136	0.018	0.2446	-0.067
Mof_C 	C 	0.0774	0.9796	0.1845	-0.017
Mof_H 	H 	0.0973	0.9987	0.1397	0.048
Mof_C 	C 	0.0861	0.9873	0.3101	-0.018
Mof_H 	H 	0.1128	0.0111	0.3512	0.047
Mof_O 	O 	0.28417	0.37947	0.29456	-0.389
Mof_O 	O 	0.31824	0.36615	0.18088	-0.387
Mof_C 	C 	0.1926	0.3244	0.0284	-0.007
Mof_H 	H 	0.1307	0.3167	0.0458	-0.039
Mof_H 	H 	0.2157	0.3823	0.0461	-0.04
Mof_C 	C 	0.1925	0.3252	0.949	-0.011
Mof_H 	H 	0.2158	0.3833	0.9319	-0.028
Mof_H 	H 	0.1304	0.3181	0.9316	-0.029
Mof_C 	C 	0.1647	0.286	0.948	-0.023
Mof_H 	H 	0.1562	0.3478	0.9305	0.027
Mof_H 	H 	0.249	0.3855	0.9307	0.034
Mof_C 	C 	0.2137	0.1644	0.027	-0.022
Mof_H 	H 	0.2496	0.3862	0.0442	0.041
Mof_H 	H 	0.1558	0.3483	0.0441	0.033
Mof_C 	C 	0.342	0.264	0.0279	-0.019
Mof_H 	H 	0.178	0.3653	0.0452	0.039
Mof_H 	H 	0.1184	0.2841	0.0455	0.049
Mof_C 	C 	0.2362	0.3425	0.9489	-0.018
Mof_H 	H 	0.1179	0.2847	0.9319	0.038
Mof_H 	H 	0.1785	0.3664	0.9316	0.03
Mof_C 	C 	0.3243	0.4037	0.2395	0.344
Mof_C 	C 	0.3864	0.482	0.2446	-0.068
Mof_C 	C 	0.4226	0.5204	0.1845	-0.016
Mof_H 	H 	0.4027	0.5013	0.1397	0.048
Mof_C 	C 	0.4139	0.5127	0.3101	-0.017
Mof_H 	H 	0.3872	0.4889	0.3512	0.047
Mof_O 	O 	0.37947	0.21583	0.29456	-0.389
Mof_O 	O 	0.36615	0.18176	0.18088	-0.387
Mof_C 	C 	0.3244	0.3074	0.0284	-0.007
Mof_H 	H 	0.3167	0.3693	0.0458	-0.039
Mof_H 	H 	0.3823	0.2843	0.0461	-0.04
Mof_C 	C 	0.3252	0.3075	0.949	-0.011
Mof_H 	H 	0.3833	0.2842	0.9319	-0.028
Mof_H 	H 	0.3181	0.3696	0.9316	-0.029
Mof_C 	C 	0.286	0.3353	0.948	-0.023
Mof_H 	H 	0.3478	0.3438	0.9305	0.027
Mof_H 	H 	0.3855	0.251	0.9307	0.034
Mof_C 	C 	0.1644	0.2863	0.027	-0.022
Mof_H 	H 	0.3862	0.2504	0.0442	0.041
Mof_H 	H 	0.3483	0.3442	0.0441	0.033
Mof_C 	C 	0.264	0.158	0.0279	-0.018
Mof_H 	H 	0.3653	0.322	0.0452	0.039
Mof_H 	H 	0.2841	0.3816	0.0455	0.049
Mof_C 	C 	0.3425	0.2638	0.9489	-0.018
Mof_H 	H 	0.2847	0.3821	0.9319	0.038
Mof_H 	H 	0.3664	0.3215	0.9316	0.03
Mof_C 	C 	0.4037	0.1757	0.2395	0.344
Mof_C 	C 	0.482	0.1136	0.2446	-0.068
Mof_C 	C 	0.5204	0.0774	0.1845	-0.016
Mof_H 	H 	0.5013	0.0973	0.1397	0.048
Mof_C 	C 	0.5127	0.0861	0.3101	-0.017
Mof_H 	H 	0.4889	0.1128	0.3512	0.047
Mof_O 	O 	0.12053	0.28417	0.29456	-0.389
Mof_O 	O 	0.13385	0.31824	0.18088	-0.387
Mof_C 	C 	0.1756	0.1926	0.0284	-0.007
Mof_H 	H 	0.1833	0.1307	0.0458	-0.039
Mof_H 	H 	0.1177	0.2157	0.0461	-0.04
Mof_C 	C 	0.1748	0.1925	0.949	-0.011
Mof_H 	H 	0.1167	0.2158	0.9319	-0.028
Mof_H 	H 	0.1819	0.1304	0.9316	-0.029
Mof_C 	C 	0.214	0.1647	0.948	-0.023
Mof_H 	H 	0.1522	0.1562	0.9305	0.027
Mof_H 	H 	0.1145	0.249	0.9307	0.034
Mof_C 	C 	0.3356	0.2137	0.027	-0.022
Mof_H 	H 	0.1138	0.2496	0.0442	0.041
Mof_H 	H 	0.1517	0.1558	0.0441	0.033
Mof_C 	C 	0.236	0.342	0.0279	-0.018
Mof_H 	H 	0.1347	0.178	0.0452	0.039
Mof_H 	H 	0.2159	0.1184	0.0455	0.049
Mof_C 	C 	0.1575	0.2362	0.9489	-0.018
Mof_H 	H 	0.2153	0.1179	0.9319	0.038
Mof_H 	H 	0.1336	0.1785	0.9316	0.03
Mof_C 	C 	0.0963	0.3243	0.2395	0.344
Mof_C 	C 	0.018	0.3864	0.2446	-0.067
Mof_C 	C 	0.9796	0.4226	0.1845	-0.017
Mof_H 	H 	0.9987	0.4027	0.1397	0.048
Mof_C 	C 	0.9873	0.4139	0.3101	-0.018
Mof_H 	H 	0.0111	0.3872	0.3512	0.047
Mof_O 	O 	0.78417	0.62053	0.20544	-0.389
Mof_O 	O 	0.81824	0.63385	0.31912	-0.387
Mof_C 	C 	0.6926	0.6756	0.4716	-0.007
Mof_H 	H 	0.6307	0.6833	0.4542	-0.04
Mof_H 	H 	0.7157	0.6177	0.4539	-0.04
Mof_C 	C 	0.6925	0.6748	0.551	-0.011
Mof_H 	H 	0.7158	0.6167	0.5681	-0.027
Mof_H 	H 	0.6304	0.6819	0.5684	-0.029
Mof_C 	C 	0.6647	0.714	0.552	-0.023
Mof_H 	H 	0.6562	0.6522	0.5695	0.027
Mof_H 	H 	0.749	0.6145	0.5693	0.033
Mof_C 	C 	0.7137	0.8356	0.473	-0.022
Mof_H 	H 	0.7496	0.6138	0.4558	0.041
Mof_H 	H 	0.6558	0.6517	0.4559	0.033
Mof_C 	C 	0.842	0.736	0.4721	-0.018
Mof_H 	H 	0.678	0.6347	0.4548	0.039
Mof_H 	H 	0.6184	0.7159	0.4545	0.049
Mof_C 	C 	0.7362	0.6575	0.5511	-0.018
Mof_H 	H 	0.6179	0.7153	0.5681	0.038
Mof_H 	H 	0.6785	0.6336	0.5684	0.03
Mof_C 	C 	0.8243	0.5963	0.2605	0.344
Mof_C 	C 	0.8864	0.518	0.2554	-0.068
Mof_C 	C 	0.9226	0.4796	0.3155	-0.016
Mof_H 	H 	0.9027	0.4987	0.3603	0.048
Mof_C 	C 	0.9139	0.4873	0.1899	-0.017
Mof_H 	H 	0.8872	0.5111	0.1488	0.046
Mof_O 	O 	0.71583	0.87947	0.20544	-0.389
Mof_O 	O 	0.68176	0.86615	0.31912	-0.387
Mof_C 	C 	0.8074	0.8244	0.4716	-0.007
Mof_H 	H 	0.8693	0.8167	0.4542	-0.04
Mof_H 	H 	0.7843	0.8823	0.4539	-0.04
Mof_C 	C 	0.8075	0.8252	0.551	-0.011
Mof_H 	H 	0.7842	0.8833	0.5681	-0.027
Mof_H 	H 	0.8696	0.8181	0.5684	-0.029
Mof_C 	C 	0.8353	0.786	0.552	-0.023
Mof_H 	H 	0.8438	0.8478	0.5695	0.027
Mof_H 	H 	0.751	0.8855	0.5693	0.033
Mof_C 	C 	0.7863	0.6644	0.473	-0.022
Mof_H 	H 	0.7504	0.8862	0.4558	0.041
Mof_H 	H 	0.8442	0.8483	0.4559	0.033
Mof_C 	C 	0.658	0.764	0.4721	-0.018
Mof_H 	H 	0.822	0.8653	0.4548	0.039
Mof_H 	H 	0.8816	0.7841	0.4545	0.049
Mof_C 	C 	0.7638	0.8425	0.5511	-0.018
Mof_H 	H 	0.8821	0.7847	0.5681	0.038
Mof_H 	H 	0.8215	0.8664	0.5684	0.03
Mof_C 	C 	0.6757	0.9037	0.2605	0.344
Mof_C 	C 	0.6136	0.982	0.2554	-0.068
Mof_C 	C 	0.5774	0.0204	0.3155	-0.016
Mof_H 	H 	0.5973	0.0013	0.3603	0.048
Mof_C 	C 	0.5861	0.0127	0.1899	-0.017
Mof_H 	H 	0.6128	0.9889	0.1488	0.046
Mof_O 	O 	0.62053	0.71583	0.20544	-0.389
Mof_O 	O 	0.63385	0.68176	0.31912	-0.387
Mof_C 	C 	0.6756	0.8074	0.4716	-0.007
Mof_H 	H 	0.6833	0.8693	0.4542	-0.04
Mof_H 	H 	0.6177	0.7843	0.4539	-0.04
Mof_C 	C 	0.6748	0.8075	0.551	-0.011
Mof_H 	H 	0.6167	0.7842	0.5681	-0.027
Mof_H 	H 	0.6819	0.8696	0.5684	-0.029
Mof_C 	C 	0.714	0.8353	0.552	-0.023
Mof_H 	H 	0.6522	0.8438	0.5695	0.027
Mof_H 	H 	0.6145	0.751	0.5693	0.033
Mof_C 	C 	0.8356	0.7863	0.473	-0.022
Mof_H 	H 	0.6138	0.7504	0.4558	0.041
Mof_H 	H 	0.6517	0.8442	0.4559	0.033
Mof_C 	C 	0.736	0.658	0.4721	-0.018
Mof_H 	H 	0.6347	0.822	0.4548	0.039
Mof_H 	H 	0.7159	0.8816	0.4545	0.049
Mof_C 	C 	0.6575	0.7638	0.5511	-0.018
Mof_H 	H 	0.7153	0.8821	0.5681	0.038
Mof_H 	H 	0.6336	0.8215	0.5684	0.03
Mof_C 	C 	0.5963	0.6757	0.2605	0.344
Mof_C 	C 	0.518	0.6136	0.2554	-0.068
Mof_C 	C 	0.4796	0.5774	0.3155	-0.016
Mof_H 	H 	0.4987	0.5973	0.3603	0.048
Mof_C 	C 	0.4873	0.5861	0.1899	-0.017
Mof_H 	H 	0.5111	0.6128	0.1488	0.047
Mof_O 	O 	0.87947	0.78417	0.20544	-0.389
Mof_O 	O 	0.86615	0.81824	0.31912	-0.387
Mof_C 	C 	0.8244	0.6926	0.4716	-0.007
Mof_H 	H 	0.8167	0.6307	0.4542	-0.04
Mof_H 	H 	0.8823	0.7157	0.4539	-0.04
Mof_C 	C 	0.8252	0.6925	0.551	-0.011
Mof_H 	H 	0.8833	0.7158	0.5681	-0.027
Mof_H 	H 	0.8181	0.6304	0.5684	-0.029
Mof_C 	C 	0.786	0.6647	0.552	-0.023
Mof_H 	H 	0.8478	0.6562	0.5695	0.027
Mof_H 	H 	0.8855	0.749	0.5693	0.033
Mof_C 	C 	0.6644	0.7137	0.473	-0.022
Mof_H 	H 	0.8862	0.7496	0.4558	0.041
Mof_H 	H 	0.8483	0.6558	0.4559	0.033
Mof_C 	C 	0.764	0.842	0.4721	-0.018
Mof_H 	H 	0.8653	0.678	0.4548	0.039
Mof_H 	H 	0.7841	0.6184	0.4545	0.049
Mof_C 	C 	0.8425	0.7362	0.5511	-0.018
Mof_H 	H 	0.7847	0.6179	0.5681	0.038
Mof_H 	H 	0.8664	0.6785	0.5684	0.03
Mof_C 	C 	0.9037	0.8243	0.2605	0.344
Mof_C 	C 	0.982	0.8864	0.2554	-0.068
Mof_C 	C 	0.0204	0.9226	0.3155	-0.016
Mof_H 	H 	0.0013	0.9027	0.3603	0.048
Mof_C 	C 	0.0127	0.9139	0.1899	-0.017
Mof_H 	H 	0.9889	0.8872	0.1488	0.047
Mof_O 	O 	0.78417	0.87947	0.70544	-0.446
Mof_O 	O 	0.81824	0.86615	0.81912	-0.398
Mof_C 	C 	0.6926	0.8244	0.9716	-0.008
Mof_H 	H 	0.6307	0.8167	0.9542	-0.042
Mof_H 	H 	0.7157	0.8823	0.9539	-0.043
Mof_C 	C 	0.6925	0.8252	0.051	-0.01
Mof_H 	H 	0.7158	0.8833	0.0681	-0.012
Mof_H 	H 	0.6304	0.8181	0.0684	-0.012
Mof_C 	C 	0.6647	0.786	0.052	-0.023
Mof_H 	H 	0.6562	0.8478	0.0695	0.022
Mof_H 	H 	0.749	0.8855	0.0693	0.027
Mof_C 	C 	0.7137	0.6644	0.973	-0.022
Mof_H 	H 	0.7496	0.8862	0.9558	0.042
Mof_H 	H 	0.6558	0.8483	0.9559	0.034
Mof_C 	C 	0.842	0.764	0.9721	-0.019
Mof_H 	H 	0.678	0.8653	0.9548	0.04
Mof_H 	H 	0.6184	0.7841	0.9545	0.05
Mof_C 	C 	0.7362	0.8425	0.0511	-0.017
Mof_H 	H 	0.6179	0.7847	0.0681	0.031
Mof_H 	H 	0.6785	0.8664	0.0684	0.025
Mof_C 	C 	0.8243	0.9037	0.7605	0.356
Mof_C 	C 	0.8864	0.982	0.7554	-0.071
Mof_C 	C 	0.9226	0.0204	0.8155	-0.016
Mof_H 	H 	0.9027	0.0013	0.8603	0.048
Mof_C 	C 	0.9139	0.0127	0.6899	-0.017
Mof_H 	H 	0.8872	0.9889	0.6488	0.047
Mof_O 	O 	0.71583	0.62053	0.70544	-0.446
Mof_O 	O 	0.68176	0.63385	0.81912	-0.398
Mof_C 	C 	0.8074	0.6756	0.9716	-0.008
Mof_H 	H 	0.8693	0.6833	0.9542	-0.042
Mof_H 	H 	0.7843	0.6177	0.9539	-0.043
Mof_C 	C 	0.8075	0.6748	0.051	-0.01
Mof_H 	H 	0.7842	0.6167	0.0681	-0.012
Mof_H 	H 	0.8696	0.6819	0.0684	-0.012
Mof_C 	C 	0.8353	0.714	0.052	-0.023
Mof_H 	H 	0.8438	0.6522	0.0695	0.022
Mof_H 	H 	0.751	0.6145	0.0693	0.027
Mof_C 	C 	0.7863	0.8356	0.973	-0.022
Mof_H 	H 	0.7504	0.6138	0.9558	0.042
Mof_H 	H 	0.8442	0.6517	0.9559	0.034
Mof_C 	C 	0.658	0.736	0.9721	-0.019
Mof_H 	H 	0.822	0.6347	0.9548	0.04
Mof_H 	H 	0.8816	0.7159	0.9545	0.05
Mof_C 	C 	0.7638	0.6575	0.0511	-0.017
Mof_H 	H 	0.8821	0.7153	0.0681	0.031
Mof_H 	H 	0.8215	0.6336	0.0684	0.025
Mof_C 	C 	0.6757	0.5963	0.7605	0.357
Mof_C 	C 	0.6136	0.518	0.7554	-0.072
Mof_C 	C 	0.5774	0.4796	0.8155	-0.015
Mof_H 	H 	0.5973	0.4987	0.8603	0.048
Mof_C 	C 	0.5861	0.4873	0.6899	-0.015
Mof_H 	H 	0.6128	0.5111	0.6488	0.046
Mof_O 	O 	0.62053	0.78417	0.70544	-0.446
Mof_O 	O 	0.63385	0.81824	0.81912	-0.398
Mof_C 	C 	0.6756	0.6926	0.9716	-0.008
Mof_H 	H 	0.6833	0.6307	0.9542	-0.042
Mof_H 	H 	0.6177	0.7157	0.9539	-0.043
Mof_C 	C 	0.6748	0.6925	0.051	-0.01
Mof_H 	H 	0.6167	0.7158	0.0681	-0.012
Mof_H 	H 	0.6819	0.6304	0.0684	-0.012
Mof_C 	C 	0.714	0.6647	0.052	-0.023
Mof_H 	H 	0.6522	0.6562	0.0695	0.022
Mof_H 	H 	0.6145	0.749	0.0693	0.027
Mof_C 	C 	0.8356	0.7137	0.973	-0.022
Mof_H 	H 	0.6138	0.7496	0.9558	0.042
Mof_H 	H 	0.6517	0.6558	0.9559	0.034
Mof_C 	C 	0.736	0.842	0.9721	-0.019
Mof_H 	H 	0.6347	0.678	0.9548	0.04
Mof_H 	H 	0.7159	0.6184	0.9545	0.05
Mof_C 	C 	0.6575	0.7362	0.0511	-0.017
Mof_H 	H 	0.7153	0.6179	0.0681	0.031
Mof_H 	H 	0.6336	0.6785	0.0684	0.025
Mof_C 	C 	0.5963	0.8243	0.7605	0.357
Mof_C 	C 	0.518	0.8864	0.7554	-0.072
Mof_C 	C 	0.4796	0.9226	0.8155	-0.015
Mof_H 	H 	0.4987	0.9027	0.8603	0.048
Mof_C 	C 	0.4873	0.9139	0.6899	-0.016
Mof_H 	H 	0.5111	0.8872	0.6488	0.046
Mof_O 	O 	0.87947	0.71583	0.70544	-0.446
Mof_O 	O 	0.86615	0.68176	0.81912	-0.398
Mof_C 	C 	0.8244	0.8074	0.9716	-0.008
Mof_H 	H 	0.8167	0.8693	0.9542	-0.042
Mof_H 	H 	0.8823	0.7843	0.9539	-0.043
Mof_C 	C 	0.8252	0.8075	0.051	-0.01
Mof_H 	H 	0.8833	0.7842	0.0681	-0.012
Mof_H 	H 	0.8181	0.8696	0.0684	-0.012
Mof_C 	C 	0.786	0.8353	0.052	-0.023
Mof_H 	H 	0.8478	0.8438	0.0695	0.022
Mof_H 	H 	0.8855	0.751	0.0693	0.027
Mof_C 	C 	0.6644	0.7863	0.973	-0.022
Mof_H 	H 	0.8862	0.7504	0.9558	0.042
Mof_H 	H 	0.8483	0.8442	0.9559	0.034
Mof_C 	C 	0.764	0.658	0.9721	-0.019
Mof_H 	H 	0.8653	0.822	0.9548	0.04
Mof_H 	H 	0.7841	0.8816	0.9545	0.05
Mof_C 	C 	0.8425	0.7638	0.0511	-0.017
Mof_H 	H 	0.7847	0.8821	0.0681	0.031
Mof_H 	H 	0.8664	0.8215	0.0684	0.025
Mof_C 	C 	0.9037	0.6757	0.7605	0.357
Mof_C 	C 	0.982	0.6136	0.7554	-0.071
Mof_C 	C 	0.0204	0.5774	0.8155	-0.015
Mof_H 	H 	0.0013	0.5973	0.8603	0.048
Mof_C 	C 	0.0127	0.5861	0.6899	-0.016
Mof_H 	H 	0.9889	0.6128	0.6488	0.046
Mof_O 	O 	0.21583	0.37947	0.79456	-0.446
Mof_O 	O 	0.18176	0.36615	0.68088	-0.398
Mof_C 	C 	0.3074	0.3244	0.5284	-0.008
Mof_H 	H 	0.3693	0.3167	0.5458	-0.041
Mof_H 	H 	0.2843	0.3823	0.5461	-0.042
Mof_C 	C 	0.3075	0.3252	0.449	-0.01
Mof_H 	H 	0.2842	0.3833	0.4319	-0.013
Mof_H 	H 	0.3696	0.3181	0.4316	-0.013
Mof_C 	C 	0.3353	0.286	0.448	-0.022
Mof_H 	H 	0.3438	0.3478	0.4305	0.022
Mof_H 	H 	0.251	0.3855	0.4307	0.027
Mof_C 	C 	0.2863	0.1644	0.527	-0.022
Mof_H 	H 	0.2504	0.3862	0.5442	0.042
Mof_H 	H 	0.3442	0.3483	0.5441	0.034
Mof_C 	C 	0.158	0.264	0.5279	-0.019
Mof_H 	H 	0.322	0.3653	0.5452	0.04
Mof_H 	H 	0.3816	0.2841	0.5455	0.05
Mof_C 	C 	0.2638	0.3425	0.4489	-0.017
Mof_H 	H 	0.3821	0.2847	0.4319	0.031
Mof_H 	H 	0.3215	0.3664	0.4316	0.025
Mof_C 	C 	0.1757	0.4037	0.7395	0.357
Mof_C 	C 	0.1136	0.482	0.7446	-0.072
Mof_C 	C 	0.0774	0.5204	0.6845	-0.015
Mof_H 	H 	0.0973	0.5013	0.6397	0.048
Mof_C 	C 	0.0861	0.5127	0.8101	-0.015
Mof_H 	H 	0.1128	0.4889	0.8512	0.046
Mof_O 	O 	0.28417	0.12053	0.79456	-0.446
Mof_O 	O 	0.31824	0.13385	0.68088	-0.398
Mof_C 	C 	0.1926	0.1756	0.5284	-0.008
Mof_H 	H 	0.1307	0.1833	0.5458	-0.041
Mof_H 	H 	0.2157	0.1177	0.5461	-0.042
Mof_C 	C 	0.1925	0.1748	0.449	-0.01
Mof_H 	H 	0.2158	0.1167	0.4319	-0.013
Mof_H 	H 	0.1304	0.1819	0.4316	-0.013
Mof_C 	C 	0.1647	0.214	0.448	-0.022
Mof_H 	H 	0.1562	0.1522	0.4305	0.022
Mof_H 	H 	0.249	0.1145	0.4307	0.027
Mof_C 	C 	0.2137	0.3356	0.527	-0.022
Mof_H 	H 	0.2496	0.1138	0.5442	0.042
Mof_H 	H 	0.1558	0.1517	0.5441	0.034
Mof_C 	C 	0.342	0.236	0.5279	-0.019
Mof_H 	H 	0.178	0.1347	0.5452	0.04
Mof_H 	H 	0.1184	0.2159	0.5455	0.05
Mof_C 	C 	0.2362	0.1575	0.4489	-0.017
Mof_H 	H 	0.1179	0.2153	0.4319	0.031
Mof_H 	H 	0.1785	0.1336	0.4316	0.025
Mof_C 	C 	0.3243	0.0963	0.7395	0.357
Mof_C 	C 	0.3864	0.018	0.7446	-0.072
Mof_C 	C 	0.4226	0.9796	0.6845	-0.015
Mof_H 	H 	0.4027	0.9987	0.6397	0.048
Mof_C 	C 	0.4139	0.9873	0.8101	-0.015
Mof_H 	H 	0.3872	0.0111	0.8512	0.046
Mof_O 	O 	0.37947	0.28417	0.79456	-0.446
Mof_O 	O 	0.36615	0.31824	0.68088	-0.398
Mof_C 	C 	0.3244	0.1926	0.5284	-0.008
Mof_H 	H 	0.3167	0.1307	0.5458	-0.041
Mof_H 	H 	0.3823	0.2157	0.5461	-0.042
Mof_C 	C 	0.3252	0.1925	0.449	-0.01
Mof_H 	H 	0.3833	0.2158	0.4319	-0.013
Mof_H 	H 	0.3181	0.1304	0.4316	-0.013
Mof_C 	C 	0.286	0.1647	0.448	-0.022
Mof_H 	H 	0.3478	0.1562	0.4305	0.022
Mof_H 	H 	0.3855	0.249	0.4307	0.027
Mof_C 	C 	0.1644	0.2137	0.527	-0.022
Mof_H 	H 	0.3862	0.2496	0.5442	0.042
Mof_H 	H 	0.3483	0.1558	0.5441	0.034
Mof_C 	C 	0.264	0.342	0.5279	-0.019
Mof_H 	H 	0.3653	0.178	0.5452	0.04
Mof_H 	H 	0.2841	0.1184	0.5455	0.05
Mof_C 	C 	0.3425	0.2362	0.4489	-0.017
Mof_H 	H 	0.2847	0.1179	0.4319	0.031
Mof_H 	H 	0.3664	0.1785	0.4316	0.025
Mof_C 	C 	0.4037	0.3243	0.7395	0.357
Mof_C 	C 	0.482	0.3864	0.7446	-0.072
Mof_C 	C 	0.5204	0.4226	0.6845	-0.015
Mof_H 	H 	0.5013	0.4027	0.6397	0.048
Mof_C 	C 	0.5127	0.4139	0.8101	-0.015
Mof_H 	H 	0.4889	0.3872	0.8512	0.046
Mof_O 	O 	0.12053	0.21583	0.79456	-0.446
Mof_O 	O 	0.13385	0.18176	0.68088	-0.398
Mof_C 	C 	0.1756	0.3074	0.5284	-0.008
Mof_H 	H 	0.1833	0.3693	0.5458	-0.041
Mof_H 	H 	0.1177	0.2843	0.5461	-0.042
Mof_C 	C 	0.1748	0.3075	0.449	-0.01
Mof_H 	H 	0.1167	0.2842	0.4319	-0.013
Mof_H 	H 	0.1819	0.3696	0.4316	-0.013
Mof_C 	C 	0.214	0.3353	0.448	-0.022
Mof_H 	H 	0.1522	0.3438	0.4305	0.022
Mof_H 	H 	0.1145	0.251	0.4307	0.027
Mof_C 	C 	0.3356	0.2863	0.527	-0.023
Mof_H 	H 	0.1138	0.2504	0.5442	0.042
Mof_H 	H 	0.1517	0.3442	0.5441	0.034
Mof_C 	C 	0.236	0.158	0.5279	-0.019
Mof_H 	H 	0.1347	0.322	0.5452	0.04
Mof_H 	H 	0.2159	0.3816	0.5455	0.05
Mof_C 	C 	0.1575	0.2638	0.4489	-0.017
Mof_H 	H 	0.2153	0.3821	0.4319	0.031
Mof_H 	H 	0.1336	0.3215	0.4316	0.025
Mof_C 	C 	0.0963	0.1757	0.7395	0.357
Mof_C 	C 	0.018	0.1136	0.7446	-0.072
Mof_C 	C 	0.9796	0.0774	0.6845	-0.015
Mof_H 	H 	0.9987	0.0973	0.6397	0.048
Mof_C 	C 	0.9873	0.0861	0.8101	-0.015
Mof_H 	H 	0.0111	0.1128	0.8512	0.046
Mof_Cu	Cu	0.25	0.25	0.16175	0.91
Mof_Cu	Cu	0.25	0.25	0.31481	0.909
Mof_N 	N 	0.25	0.25	0.0548	-0.157
Mof_N 	N 	0.25	0.25	0.9213	-0.196
Mof_Zn	Zn	0.25	0.25	0.81481	1.217
Mof_Cu	Cu	0.75	0.75	0.33825	0.91
Mof_Cu	Cu	0.75	0.75	0.18519	0.909
Mof_N 	N 	0.75	0.75	0.4452	-0.157
Mof_N 	N 	0.75	0.75	0.5787	-0.196
Mof_Zn	Zn	0.75	0.75	0.68519	1.217
Mof_Cu	Cu	0.75	0.75	0.83825	0.902
Mof_N 	N 	0.75	0.75	0.9452	-0.157
Mof_N 	N 	0.75	0.75	0.0787	-0.16
Mof_Cu	Cu	0.25	0.25	0.66175	0.902
Mof_N 	N 	0.25	0.25	0.5548	-0.157
Mof_N 	N 	0.25	0.25	0.4213	-0.16
_end
