data_functionalizedCrystal
_audit_creation_method	'EQeq! by Chris Wilmer'
_symmetry_space_group_name_H-M	'P1'
_symmetry_Int_Tables_number	1
_symmetry_cell_setting	triclinic
loop_
_symmetry_equiv_pos_as_xyz
  x,y,z
_cell_length_a	37.083
_cell_length_b	37.083
_cell_length_c	30.0291
_cell_angle_alpha	90
_cell_angle_beta	90
_cell_angle_gamma	120
loop_
_atom_site_label
_atom_site_type_symbol
_atom_site_fract_x
_atom_site_fract_y
_atom_site_fract_z
_atom_site_charge
Mof_Zn	Zn	0.2244	0.3659	0.7388	1.095
Mof_Zn	Zn	0.157	0.2963	0.8018	1.137
Mof_Zn	Zn	0.6223	0.3416	0.7198	1.136
Mof_O 	O 	0.26	0.354	0.775	-0.637
Mof_O 	O 	0.368	0.239	0.177	-0.72
Mof_O 	O 	0.591	0.342	0.772	-0.641
Mof_O 	O 	0.212	0.307	0.821	-0.731
Mof_C 	C 	0.281	0.322	0.829	-1.122
Mof_C 	C 	0.324	0.349	0.822	0.576
Mof_C 	C 	0.3523	0.342	0.845	-0.546
Mof_H 	H 	0.3807	0.3598	0.8399	0.201
Mof_C 	C 	0.339	0.309	0.874	0.817
Mof_C 	C 	0.296	0.283	0.881	-0.517
Mof_H 	H 	0.2873	0.261	0.9015	0.181
Mof_C 	C 	0.2676	0.29	0.859	0.612
Mof_C 	C 	0.582	0.326	0.812	1.194
Mof_O 	O 	0.317	0.175	0.149	-0.574
Mof_C 	C 	0.369	0.301	0.899	-0.66
Mof_C 	C 	0.405	0.308	0.8782	0.636
Mof_H 	H 	0.4112	0.3173	0.8491	-0.245
Mof_C 	C 	0.433	0.3	0.901	-0.875
Mof_C 	C 	0.425	0.285	0.945	0.634
Mof_H 	H 	0.4434	0.2802	0.9605	-0.245
Mof_C 	C 	0.388	0.278	0.9653	-0.663
Mof_C 	C 	0.36	0.286	0.942	0.535
Mof_H 	H 	0.3357	0.2814	0.9558	-0.191
Mof_C 	C 	0.359	0.23	0.098	-1.198
Mof_C 	C 	0.4	0.259	0.087	0.565
Mof_C 	C 	0.409	0.275	0.044	-0.519
Mof_H 	H 	0.4367	0.2949	0.0366	0.176
Mof_C 	C 	0.378	0.262	0.012	0.918
Mof_C 	C 	0.338	0.232	0.023	-0.532
Mof_H 	H 	0.3167	0.2234	0.0016	0.185
Mof_C 	C 	0.328	0.217	0.066	0.579
Mof_C 	C 	0.222	0.443	0.75	0.314
Mof_C 	C 	0.248	0.327	0.803	1.37
Mof_C 	C 	0.349	0.212	0.145	1.493
Mof_C 	C 	0.471	0.306	0.878	1.421
Mof_C 	C 	0.493	0.34	0.85	1.779
Mof_H 	H 	0.4831	0.3584	0.8442	-0.601
Mof_C 	C 	0.529	0.347	0.829	-1.36
Mof_C 	C 	0.544	0.319	0.837	-1.16
Mof_C 	C 	0.522	0.286	0.866	-1.881
Mof_C 	C 	0.486	0.279	0.886	2.306
Mof_H 	H 	0.4715	0.2566	0.9051	-0.793
Mof_O 	O 	0.615	0.327	0.831	-0.675
Mof_C 	C 	0.113	0.227	0.75	0.299
Mof_C 	C 	0.529	0.247	0.883	0.908
Mof_H 	H 	0.5479	0.256	0.9076	-0.283
Mof_H 	H 	0.5411	0.2389	0.8588	-0.215
Mof_H 	H 	0.503	0.2237	0.8912	-0.259
Mof_O 	O 	0.128	0.239	0.788	-0.506
Mof_O 	O 	0.242	0.425	0.75	-0.471
Mof_C 	C 	0.103	0.155	0.776	0.327
Mof_C 	C 	0.304	0.555	0.729	-0.224
Mof_H 	H 	0.3295	0.5689	0.7141	0.088
Mof_C 	C 	0.081	0.111	0.776	-0.307
Mof_H 	H 	0.0905	0.0964	0.7924	0.116
Mof_C 	C 	0.141	0.17	0.807	-0.83
Mof_H 	H 	0.1463	0.1489	0.8129	0.272
Mof_H 	H 	0.135	0.1806	0.8341	0.246
Mof_H 	H 	0.1643	0.1935	0.7924	0.26
Mof_C 	C 	0.283	0.512	0.729	0.26
Mof_C 	C 	0.308	0.5	0.703	-0.572
Mof_H 	H 	0.3088	0.4754	0.7187	0.148
Mof_H 	H 	0.3363	0.5205	0.6998	0.175
Mof_H 	H 	0.2963	0.4883	0.6741	0.163
Mof_C 	C 	0.225	0.258	0.875	-1.14
Mof_H 	H 	0.2222	0.2638	0.9056	0.332
Mof_H 	H 	0.2219	0.2306	0.8732	0.33
Mof_H 	H 	0.2042	0.259	0.8574	0.388
Mof_C 	C 	0.438	0.276	0.117	-1.061
Mof_H 	H 	0.4449	0.3036	0.1273	0.311
Mof_H 	H 	0.4608	0.2778	0.101	0.321
Mof_H 	H 	0.4317	0.2582	0.1424	0.34
Mof_Zn	Zn	0.1881	0.3012	0.7225	1.129
Mof_Zn	Zn	0.2071	0.3713	0.7944	1.113
Mof_O 	O 	0.365	0.188	0.151	-0.749
Mof_O 	O 	0.231	0.305	0.765	-0.681
Mof_O 	O 	0.322	0.21	0.162	-0.769
Mof_O 	O 	0.248	0.358	0.813	-0.655
Mof_C 	C 	0.288	0.332	0.874	0.585
Mof_C 	C 	0.386	0.231	0.025	-0.6
Mof_H 	H 	0.3979	0.2204	0.0054	0.215
Mof_C 	C 	0.317	0.325	0.897	-0.517
Mof_H 	H 	0.3212	0.3307	0.9272	0.192
Mof_C 	C 	0.361	0.277	0.042	-0.666
Mof_H 	H 	0.3553	0.2976	0.0328	0.239
Mof_C 	C 	0.352	0.262	0.085	0.705
Mof_C 	C 	0.302	0.306	0.805	0.635
Mof_C 	C 	0.377	0.215	0.068	0.671
Mof_C 	C 	0.331	0.299	0.829	-0.52
Mof_H 	H 	0.3454	0.2875	0.8147	0.181
Mof_C 	C 	0.505	0.315	0.901	-3.803
Mof_H 	H 	0.5063	0.3191	0.9314	1.307
Mof_C 	C 	0.509	0.311	0.813	2.804
Mof_C 	C 	0.476	0.303	0.834	-3.389
Mof_H 	H 	0.4523	0.2953	0.816	1.092
Mof_C 	C 	0.536	0.317	0.88	2.674
Mof_O 	O 	0.606	0.362	0.806	-0.501
Mof_O 	O 	0.578	0.288	0.809	-0.545
Mof_O 	O 	0.156	0.25	0.725	-0.56
Mof_O 	O 	0.236	0.43	0.777	-0.367
Mof_C 	C 	0.283	0.511	0.771	0.357
Mof_C 	C 	0.302	0.496	0.805	-0.745
Mof_H 	H 	0.2818	0.4782	0.8263	0.24
Mof_H 	H 	0.3245	0.5194	0.8204	0.216
Mof_H 	H 	0.3136	0.4807	0.7903	0.23
Mof_C 	C 	0.08	0.111	0.723	-0.291
Mof_H 	H 	0.0897	0.0968	0.7058	0.106
Mof_C 	C 	0.304	0.555	0.771	-0.314
Mof_H 	H 	0.3293	0.5699	0.7867	0.114
Mof_C 	C 	0.102	0.155	0.723	0.382
Mof_C 	C 	0.332	0.28	0.11	-0.973
Mof_H 	H 	0.3515	0.3117	0.113	0.235
Mof_H 	H 	0.3255	0.2707	0.1405	0.322
Mof_H 	H 	0.3074	0.2777	0.0963	0.279
Mof_C 	C 	0.3	0.295	0.756	-1.358
Mof_H 	H 	0.2887	0.2666	0.7522	0.441
Mof_H 	H 	0.3197	0.3132	0.7398	0.512
Mof_H 	H 	0.2721	0.2978	0.7459	0.31
Mof_C 	C 	0.5	0.3	0.76	-3.027
Mof_H 	H 	0.4753	0.2759	0.755	1.007
Mof_H 	H 	0.5207	0.3104	0.7424	1.233
Mof_H 	H 	0.4865	0.3226	0.7516	0.443
Mof_C 	C 	0.39	0.182	0.07	-1.202
Mof_H 	H 	0.3654	0.1554	0.0748	0.371
Mof_H 	H 	0.4086	0.1882	0.0948	0.374
Mof_H 	H 	0.4031	0.1821	0.043	0.371
Mof_C 	C 	0.266	0.351	0.898	-1.116
Mof_H 	H 	0.2495	0.3323	0.9219	0.31
Mof_H 	H 	0.2474	0.3538	0.8777	0.389
Mof_H 	H 	0.2854	0.3772	0.9101	0.346
Mof_C 	C 	0.138	0.16	0.689	-1.165
Mof_H 	H 	0.1407	0.1863	0.6691	0.257
Mof_H 	H 	0.1313	0.1402	0.6726	0.489
Mof_H 	H 	0.1636	0.1742	0.705	0.37
Mof_C 	C 	0.55	0.39	0.799	0.645
Mof_H 	H 	0.5469	0.3832	0.7683	-0.189
Mof_H 	H 	0.579	0.4068	0.8065	-0.136
Mof_H 	H 	0.536	0.4052	0.8062	-0.169
Mof_C 	C 	0.282	0.184	0.072	-0.96
Mof_H 	H 	0.2789	0.1649	0.096	0.316
Mof_H 	H 	0.2707	0.1682	0.0454	0.282
Mof_H 	H 	0.2662	0.1972	0.0801	0.285
Mof_C 	C 	0.341	0.385	0.789	-1.099
Mof_H 	H 	0.3197	0.3907	0.7803	0.392
Mof_H 	H 	0.3515	0.3778	0.7631	0.314
Mof_H 	H 	0.3636	0.4091	0.8028	0.328
Mof_Zn	Zn	0.6341	0.8585	0.7388	1.096
Mof_Zn	Zn	0.7037	0.8607	0.8018	1.138
Mof_Zn	Zn	0.6584	0.2807	0.7198	1.137
Mof_O 	O 	0.646	0.906	0.775	-0.635
Mof_O 	O 	0.761	0.129	0.177	-0.719
Mof_O 	O 	0.658	0.249	0.772	-0.64
Mof_O 	O 	0.693	0.905	0.821	-0.73
Mof_C 	C 	0.678	0.959	0.829	-1.12
Mof_C 	C 	0.651	0.975	0.822	0.576
Mof_C 	C 	0.658	0.0103	0.845	-0.544
Mof_H 	H 	0.6402	0.0209	0.8399	0.202
Mof_C 	C 	0.691	0.03	0.874	0.817
Mof_C 	C 	0.717	0.013	0.881	-0.514
Mof_H 	H 	0.739	0.0263	0.9015	0.182
Mof_C 	C 	0.71	0.9776	0.859	0.612
Mof_C 	C 	0.674	0.256	0.812	1.195
Mof_O 	O 	0.825	0.142	0.149	-0.573
Mof_C 	C 	0.699	0.068	0.899	-0.658
Mof_C 	C 	0.692	0.097	0.8782	0.636
Mof_H 	H 	0.6827	0.0939	0.8491	-0.244
Mof_C 	C 	0.7	0.133	0.901	-0.873
Mof_C 	C 	0.715	0.14	0.945	0.634
Mof_H 	H 	0.7198	0.1632	0.9605	-0.244
Mof_C 	C 	0.722	0.11	0.9653	-0.661
Mof_C 	C 	0.714	0.074	0.942	0.535
Mof_H 	H 	0.7186	0.0543	0.9558	-0.19
Mof_C 	C 	0.77	0.129	0.098	-1.196
Mof_C 	C 	0.741	0.141	0.087	0.565
Mof_C 	C 	0.725	0.134	0.044	-0.518
Mof_H 	H 	0.7051	0.1418	0.0366	0.177
Mof_C 	C 	0.738	0.116	0.012	0.917
Mof_C 	C 	0.768	0.106	0.023	-0.53
Mof_H 	H 	0.7766	0.0933	0.0016	0.186
Mof_C 	C 	0.783	0.111	0.066	0.58
Mof_C 	C 	0.557	0.779	0.75	0.315
Mof_C 	C 	0.673	0.921	0.803	1.371
Mof_C 	C 	0.788	0.137	0.145	1.493
Mof_C 	C 	0.694	0.165	0.878	1.42
Mof_C 	C 	0.66	0.153	0.85	1.778
Mof_H 	H 	0.6416	0.1247	0.8442	-0.599
Mof_C 	C 	0.653	0.182	0.829	-1.357
Mof_C 	C 	0.681	0.225	0.837	-1.159
Mof_C 	C 	0.714	0.236	0.866	-1.878
Mof_C 	C 	0.721	0.207	0.886	2.305
Mof_H 	H 	0.7434	0.2149	0.9051	-0.791
Mof_O 	O 	0.673	0.288	0.831	-0.674
Mof_C 	C 	0.773	0.886	0.75	0.299
Mof_C 	C 	0.753	0.282	0.883	0.906
Mof_H 	H 	0.744	0.2919	0.9076	-0.283
Mof_H 	H 	0.7611	0.3022	0.8588	-0.214
Mof_H 	H 	0.7763	0.2793	0.8912	-0.259
Mof_O 	O 	0.761	0.889	0.788	-0.506
Mof_O 	O 	0.575	0.817	0.75	-0.471
Mof_C 	C 	0.845	0.948	0.776	0.327
Mof_C 	C 	0.445	0.749	0.729	-0.224
Mof_H 	H 	0.4311	0.7606	0.7141	0.088
Mof_C 	C 	0.889	0.97	0.776	-0.307
Mof_H 	H 	0.9036	0.9941	0.7924	0.116
Mof_C 	C 	0.83	0.971	0.807	-0.83
Mof_H 	H 	0.8511	0.9974	0.8129	0.272
Mof_H 	H 	0.8194	0.9544	0.8341	0.246
Mof_H 	H 	0.8065	0.9708	0.7924	0.26
Mof_C 	C 	0.488	0.771	0.729	0.26
Mof_C 	C 	0.5	0.808	0.703	-0.572
Mof_H 	H 	0.5246	0.8334	0.7187	0.148
Mof_H 	H 	0.4795	0.8158	0.6998	0.175
Mof_H 	H 	0.5117	0.808	0.6741	0.163
Mof_C 	C 	0.742	0.967	0.875	-1.138
Mof_H 	H 	0.7362	0.9584	0.9056	0.331
Mof_H 	H 	0.7694	0.9913	0.8732	0.33
Mof_H 	H 	0.741	0.9452	0.8574	0.388
Mof_C 	C 	0.724	0.162	0.117	-1.061
Mof_H 	H 	0.6964	0.1413	0.1273	0.311
Mof_H 	H 	0.7222	0.183	0.101	0.321
Mof_H 	H 	0.7418	0.1735	0.1424	0.34
Mof_Zn	Zn	0.6988	0.8869	0.7225	1.129
Mof_Zn	Zn	0.6287	0.8358	0.7944	1.113
Mof_O 	O 	0.812	0.177	0.151	-0.749
Mof_O 	O 	0.695	0.926	0.765	-0.681
Mof_O 	O 	0.79	0.112	0.162	-0.769
Mof_O 	O 	0.642	0.89	0.813	-0.655
Mof_C 	C 	0.668	0.956	0.874	0.585
Mof_C 	C 	0.769	0.155	0.025	-0.599
Mof_H 	H 	0.7796	0.1775	0.0054	0.215
Mof_C 	C 	0.675	0.992	0.897	-0.518
Mof_H 	H 	0.6693	0.9905	0.9272	0.192
Mof_C 	C 	0.723	0.084	0.042	-0.665
Mof_H 	H 	0.7024	0.0577	0.0328	0.239
Mof_C 	C 	0.738	0.09	0.085	0.704
Mof_C 	C 	0.694	0.996	0.805	0.634
Mof_C 	C 	0.785	0.162	0.068	0.67
Mof_C 	C 	0.701	0.032	0.829	-0.52
Mof_H 	H 	0.7125	0.0579	0.8147	0.18
Mof_C 	C 	0.685	0.19	0.901	-3.799
Mof_H 	H 	0.6809	0.1872	0.9314	1.306
Mof_C 	C 	0.689	0.198	0.813	2.802
Mof_C 	C 	0.697	0.173	0.834	-3.386
Mof_H 	H 	0.7047	0.157	0.816	1.091
Mof_C 	C 	0.683	0.219	0.88	2.671
Mof_O 	O 	0.638	0.244	0.806	-0.501
Mof_O 	O 	0.712	0.29	0.809	-0.545
Mof_O 	O 	0.75	0.906	0.725	-0.56
Mof_O 	O 	0.57	0.806	0.777	-0.367
Mof_C 	C 	0.489	0.772	0.771	0.357
Mof_C 	C 	0.504	0.806	0.805	-0.745
Mof_H 	H 	0.5218	0.8036	0.8263	0.24
Mof_H 	H 	0.4806	0.8051	0.8204	0.216
Mof_H 	H 	0.5193	0.8329	0.7903	0.23
Mof_C 	C 	0.889	0.969	0.723	-0.291
Mof_H 	H 	0.9032	0.9929	0.7058	0.106
Mof_C 	C 	0.445	0.749	0.771	-0.314
Mof_H 	H 	0.4301	0.7594	0.7867	0.114
Mof_C 	C 	0.845	0.947	0.723	0.382
Mof_C 	C 	0.72	0.052	0.11	-0.972
Mof_H 	H 	0.6883	0.0398	0.113	0.235
Mof_H 	H 	0.7293	0.0548	0.1405	0.322
Mof_H 	H 	0.7223	0.0297	0.0963	0.278
Mof_C 	C 	0.705	0.005	0.756	-1.356
Mof_H 	H 	0.7334	0.0221	0.7522	0.441
Mof_H 	H 	0.6868	0.0065	0.7398	0.511
Mof_H 	H 	0.7022	0.9743	0.7459	0.309
Mof_C 	C 	0.7	0.2	0.76	-3.025
Mof_H 	H 	0.7241	0.1994	0.755	1.006
Mof_H 	H 	0.6896	0.2103	0.7424	1.232
Mof_H 	H 	0.6774	0.1639	0.7516	0.443
Mof_C 	C 	0.818	0.208	0.07	-1.201
Mof_H 	H 	0.8446	0.21	0.0748	0.371
Mof_H 	H 	0.8118	0.2204	0.0948	0.374
Mof_H 	H 	0.8179	0.221	0.043	0.371
Mof_C 	C 	0.649	0.915	0.898	-1.117
Mof_H 	H 	0.6677	0.9172	0.9219	0.31
Mof_H 	H 	0.6462	0.8936	0.8777	0.389
Mof_H 	H 	0.6228	0.9082	0.9101	0.346
Mof_C 	C 	0.84	0.978	0.689	-1.165
Mof_H 	H 	0.8137	0.9544	0.6691	0.257
Mof_H 	H 	0.8598	0.9911	0.6726	0.489
Mof_H 	H 	0.8258	0.9894	0.705	0.37
Mof_C 	C 	0.61	0.16	0.799	0.644
Mof_H 	H 	0.6168	0.1637	0.7683	-0.188
Mof_H 	H 	0.5932	0.1722	0.8065	-0.135
Mof_H 	H 	0.5948	0.1308	0.8062	-0.169
Mof_C 	C 	0.816	0.098	0.072	-0.959
Mof_H 	H 	0.8351	0.114	0.096	0.316
Mof_H 	H 	0.8318	0.1025	0.0454	0.282
Mof_H 	H 	0.8028	0.069	0.0801	0.285
Mof_C 	C 	0.615	0.956	0.789	-1.097
Mof_H 	H 	0.6093	0.929	0.7803	0.392
Mof_H 	H 	0.6222	0.9737	0.7631	0.314
Mof_H 	H 	0.5909	0.9545	0.8028	0.328
Mof_Zn	Zn	0.1415	0.7756	0.7388	1.096
Mof_Zn	Zn	0.1393	0.843	0.8018	1.138
Mof_Zn	Zn	0.7193	0.3777	0.7198	1.137
Mof_O 	O 	0.094	0.74	0.775	-0.635
Mof_O 	O 	0.871	0.632	0.177	-0.719
Mof_O 	O 	0.751	0.409	0.772	-0.64
Mof_O 	O 	0.095	0.788	0.821	-0.73
Mof_C 	C 	0.041	0.719	0.829	-1.12
Mof_C 	C 	0.025	0.676	0.822	0.576
Mof_C 	C 	0.9897	0.6477	0.845	-0.544
Mof_H 	H 	0.9791	0.6193	0.8399	0.202
Mof_C 	C 	0.97	0.661	0.874	0.817
Mof_C 	C 	0.987	0.704	0.881	-0.514
Mof_H 	H 	0.9737	0.7127	0.9015	0.182
Mof_C 	C 	0.0224	0.7324	0.859	0.612
Mof_C 	C 	0.744	0.418	0.812	1.195
Mof_O 	O 	0.858	0.683	0.149	-0.573
Mof_C 	C 	0.932	0.631	0.899	-0.659
Mof_C 	C 	0.903	0.595	0.8782	0.637
Mof_H 	H 	0.9061	0.5888	0.8491	-0.244
Mof_C 	C 	0.867	0.567	0.901	-0.873
Mof_C 	C 	0.86	0.575	0.945	0.634
Mof_H 	H 	0.8368	0.5566	0.9605	-0.244
Mof_C 	C 	0.89	0.612	0.9653	-0.662
Mof_C 	C 	0.926	0.64	0.942	0.535
Mof_H 	H 	0.9457	0.6643	0.9558	-0.19
Mof_C 	C 	0.871	0.641	0.098	-1.196
Mof_C 	C 	0.859	0.6	0.087	0.565
Mof_C 	C 	0.866	0.591	0.044	-0.518
Mof_H 	H 	0.8582	0.5633	0.0366	0.177
Mof_C 	C 	0.884	0.622	0.012	0.918
Mof_C 	C 	0.894	0.662	0.023	-0.53
Mof_H 	H 	0.9067	0.6833	0.0016	0.186
Mof_C 	C 	0.889	0.672	0.066	0.58
Mof_C 	C 	0.221	0.778	0.75	0.315
Mof_C 	C 	0.079	0.752	0.803	1.371
Mof_C 	C 	0.863	0.651	0.145	1.494
Mof_C 	C 	0.835	0.529	0.878	1.421
Mof_C 	C 	0.847	0.507	0.85	1.78
Mof_H 	H 	0.8753	0.5169	0.8442	-0.6
Mof_C 	C 	0.818	0.471	0.829	-1.358
Mof_C 	C 	0.775	0.456	0.837	-1.159
Mof_C 	C 	0.764	0.478	0.866	-1.88
Mof_C 	C 	0.793	0.514	0.886	2.307
Mof_H 	H 	0.7851	0.5285	0.9051	-0.792
Mof_O 	O 	0.712	0.385	0.831	-0.674
Mof_C 	C 	0.114	0.887	0.75	0.299
Mof_C 	C 	0.718	0.471	0.883	0.908
Mof_H 	H 	0.7081	0.4521	0.9076	-0.283
Mof_H 	H 	0.6978	0.4589	0.8588	-0.215
Mof_H 	H 	0.7207	0.497	0.8912	-0.259
Mof_O 	O 	0.111	0.872	0.788	-0.506
Mof_O 	O 	0.183	0.758	0.75	-0.471
Mof_C 	C 	0.052	0.897	0.776	0.327
Mof_C 	C 	0.251	0.696	0.729	-0.224
Mof_H 	H 	0.2394	0.6705	0.7141	0.088
Mof_C 	C 	0.03	0.919	0.776	-0.307
Mof_H 	H 	0.0059	0.9095	0.7924	0.116
Mof_C 	C 	0.029	0.859	0.807	-0.829
Mof_H 	H 	0.0026	0.8537	0.8129	0.271
Mof_H 	H 	0.0456	0.865	0.8341	0.246
Mof_H 	H 	0.0292	0.8357	0.7924	0.259
Mof_C 	C 	0.229	0.717	0.729	0.26
Mof_C 	C 	0.192	0.692	0.703	-0.572
Mof_H 	H 	0.1666	0.6912	0.7187	0.148
Mof_H 	H 	0.1842	0.6637	0.6998	0.175
Mof_H 	H 	0.192	0.7037	0.6741	0.163
Mof_C 	C 	0.033	0.775	0.875	-1.138
Mof_H 	H 	0.0416	0.7778	0.9056	0.331
Mof_H 	H 	0.0087	0.7781	0.8732	0.33
Mof_H 	H 	0.0548	0.7958	0.8574	0.388
Mof_C 	C 	0.838	0.562	0.117	-1.061
Mof_H 	H 	0.8587	0.5551	0.1273	0.311
Mof_H 	H 	0.817	0.5392	0.101	0.321
Mof_H 	H 	0.8265	0.5683	0.1424	0.34
Mof_Zn	Zn	0.1131	0.8119	0.7225	1.129
Mof_Zn	Zn	0.1642	0.7929	0.7944	1.113
Mof_O 	O 	0.823	0.635	0.151	-0.749
Mof_O 	O 	0.074	0.769	0.765	-0.681
Mof_O 	O 	0.888	0.678	0.162	-0.769
Mof_O 	O 	0.11	0.752	0.813	-0.655
Mof_C 	C 	0.044	0.712	0.874	0.585
Mof_C 	C 	0.845	0.614	0.025	-0.6
Mof_H 	H 	0.8225	0.6021	0.0054	0.215
Mof_C 	C 	0.008	0.683	0.897	-0.518
Mof_H 	H 	0.0095	0.6788	0.9272	0.192
Mof_C 	C 	0.916	0.639	0.042	-0.666
Mof_H 	H 	0.9423	0.6447	0.0328	0.239
Mof_C 	C 	0.91	0.648	0.085	0.705
Mof_C 	C 	0.004	0.698	0.805	0.634
Mof_C 	C 	0.838	0.623	0.068	0.671
Mof_C 	C 	0.968	0.669	0.829	-0.52
Mof_H 	H 	0.9421	0.6546	0.8147	0.18
Mof_C 	C 	0.81	0.495	0.901	-3.801
Mof_H 	H 	0.8128	0.4937	0.9314	1.307
Mof_C 	C 	0.802	0.491	0.813	2.804
Mof_C 	C 	0.827	0.524	0.834	-3.388
Mof_H 	H 	0.843	0.5477	0.816	1.091
Mof_C 	C 	0.781	0.464	0.88	2.673
Mof_O 	O 	0.756	0.394	0.806	-0.501
Mof_O 	O 	0.71	0.422	0.809	-0.545
Mof_O 	O 	0.094	0.844	0.725	-0.56
Mof_O 	O 	0.194	0.764	0.777	-0.367
Mof_C 	C 	0.228	0.717	0.771	0.357
Mof_C 	C 	0.194	0.698	0.805	-0.745
Mof_H 	H 	0.1964	0.7182	0.8263	0.24
Mof_H 	H 	0.1949	0.6755	0.8204	0.216
Mof_H 	H 	0.1671	0.6864	0.7903	0.23
Mof_C 	C 	0.031	0.92	0.723	-0.291
Mof_H 	H 	0.0071	0.9103	0.7058	0.106
Mof_C 	C 	0.251	0.696	0.771	-0.314
Mof_H 	H 	0.2406	0.6707	0.7867	0.114
Mof_C 	C 	0.053	0.898	0.723	0.382
Mof_C 	C 	0.948	0.668	0.11	-0.972
Mof_H 	H 	0.9602	0.6485	0.113	0.235
Mof_H 	H 	0.9452	0.6745	0.1405	0.322
Mof_H 	H 	0.9703	0.6926	0.0963	0.278
Mof_C 	C 	0.995	0.7	0.756	-1.356
Mof_H 	H 	0.9779	0.7113	0.7522	0.441
Mof_H 	H 	0.9935	0.6803	0.7398	0.511
Mof_H 	H 	0.0257	0.7279	0.7459	0.309
Mof_C 	C 	0.8	0.5	0.76	-3.027
Mof_H 	H 	0.8006	0.5247	0.755	1.007
Mof_H 	H 	0.7897	0.4793	0.7424	1.232
Mof_H 	H 	0.8361	0.5135	0.7516	0.443
Mof_C 	C 	0.792	0.61	0.07	-1.202
Mof_H 	H 	0.79	0.6346	0.0748	0.371
Mof_H 	H 	0.7796	0.5914	0.0948	0.374
Mof_H 	H 	0.779	0.5969	0.043	0.371
Mof_C 	C 	0.085	0.734	0.898	-1.117
Mof_H 	H 	0.0828	0.7505	0.9219	0.31
Mof_H 	H 	0.1064	0.7526	0.8777	0.389
Mof_H 	H 	0.0918	0.7146	0.9101	0.346
Mof_C 	C 	0.022	0.862	0.689	-1.165
Mof_H 	H 	0.0456	0.8593	0.6691	0.257
Mof_H 	H 	0.0089	0.8687	0.6726	0.489
Mof_H 	H 	0.0106	0.8364	0.705	0.369
Mof_C 	C 	0.84	0.45	0.799	0.645
Mof_H 	H 	0.8363	0.4531	0.7683	-0.189
Mof_H 	H 	0.8278	0.421	0.8065	-0.135
Mof_H 	H 	0.8692	0.464	0.8062	-0.169
Mof_C 	C 	0.902	0.718	0.072	-0.96
Mof_H 	H 	0.886	0.7211	0.096	0.316
Mof_H 	H 	0.8975	0.7293	0.0454	0.282
Mof_H 	H 	0.931	0.7338	0.0801	0.285
Mof_C 	C 	0.044	0.659	0.789	-1.097
Mof_H 	H 	0.071	0.6803	0.7803	0.392
Mof_H 	H 	0.0263	0.6485	0.7631	0.314
Mof_H 	H 	0.0455	0.6364	0.8028	0.328
Mof_Zn	Zn	0.6341	0.7756	0.7612	1.096
Mof_Zn	Zn	0.7037	0.843	0.6982	1.138
Mof_Zn	Zn	0.6584	0.3777	0.7802	1.137
Mof_O 	O 	0.646	0.74	0.725	-0.636
Mof_O 	O 	0.761	0.632	0.323	-0.719
Mof_O 	O 	0.658	0.409	0.728	-0.64
Mof_O 	O 	0.693	0.788	0.679	-0.73
Mof_C 	C 	0.678	0.719	0.671	-1.121
Mof_C 	C 	0.651	0.676	0.678	0.577
Mof_C 	C 	0.658	0.6477	0.655	-0.545
Mof_H 	H 	0.6402	0.6193	0.6601	0.202
Mof_C 	C 	0.691	0.661	0.626	0.818
Mof_C 	C 	0.717	0.704	0.619	-0.516
Mof_H 	H 	0.739	0.7127	0.5985	0.182
Mof_C 	C 	0.71	0.7324	0.641	0.613
Mof_C 	C 	0.674	0.418	0.688	1.195
Mof_O 	O 	0.825	0.683	0.351	-0.573
Mof_C 	C 	0.699	0.631	0.601	-0.659
Mof_C 	C 	0.692	0.595	0.6218	0.637
Mof_H 	H 	0.6827	0.5888	0.6509	-0.244
Mof_C 	C 	0.7	0.567	0.599	-0.874
Mof_C 	C 	0.715	0.575	0.555	0.635
Mof_H 	H 	0.7198	0.5566	0.5395	-0.244
Mof_C 	C 	0.722	0.612	0.5347	-0.663
Mof_C 	C 	0.714	0.64	0.558	0.536
Mof_H 	H 	0.7186	0.6643	0.5442	-0.19
Mof_C 	C 	0.77	0.641	0.402	-1.197
Mof_C 	C 	0.741	0.6	0.413	0.566
Mof_C 	C 	0.725	0.591	0.456	-0.518
Mof_H 	H 	0.7051	0.5633	0.4634	0.177
Mof_C 	C 	0.738	0.622	0.488	0.919
Mof_C 	C 	0.768	0.662	0.477	-0.531
Mof_H 	H 	0.7766	0.6833	0.4984	0.186
Mof_C 	C 	0.783	0.672	0.434	0.58
Mof_C 	C 	0.557	0.778	0.75	0.315
Mof_C 	C 	0.673	0.752	0.697	1.371
Mof_C 	C 	0.788	0.651	0.355	1.494
Mof_C 	C 	0.694	0.529	0.622	1.422
Mof_C 	C 	0.66	0.507	0.65	1.78
Mof_H 	H 	0.6416	0.5169	0.6558	-0.6
Mof_C 	C 	0.653	0.471	0.671	-1.359
Mof_C 	C 	0.681	0.456	0.663	-1.159
Mof_C 	C 	0.714	0.478	0.634	-1.881
Mof_C 	C 	0.721	0.514	0.614	2.308
Mof_H 	H 	0.7434	0.5285	0.5949	-0.793
Mof_O 	O 	0.673	0.385	0.669	-0.674
Mof_C 	C 	0.773	0.887	0.75	0.299
Mof_C 	C 	0.753	0.471	0.617	0.908
Mof_H 	H 	0.744	0.4521	0.5924	-0.284
Mof_H 	H 	0.7611	0.4589	0.6412	-0.215
Mof_H 	H 	0.7763	0.497	0.6088	-0.259
Mof_O 	O 	0.761	0.872	0.712	-0.506
Mof_O 	O 	0.575	0.758	0.75	-0.471
Mof_C 	C 	0.845	0.897	0.724	0.327
Mof_C 	C 	0.445	0.696	0.771	-0.224
Mof_H 	H 	0.4311	0.6705	0.7859	0.088
Mof_C 	C 	0.889	0.919	0.724	-0.307
Mof_H 	H 	0.9036	0.9095	0.7076	0.116
Mof_C 	C 	0.83	0.859	0.693	-0.83
Mof_H 	H 	0.8511	0.8537	0.6871	0.272
Mof_H 	H 	0.8194	0.865	0.6659	0.246
Mof_H 	H 	0.8065	0.8357	0.7076	0.259
Mof_C 	C 	0.488	0.717	0.771	0.26
Mof_C 	C 	0.5	0.692	0.797	-0.572
Mof_H 	H 	0.5246	0.6912	0.7813	0.148
Mof_H 	H 	0.4795	0.6637	0.8002	0.175
Mof_H 	H 	0.5117	0.7037	0.8259	0.163
Mof_C 	C 	0.742	0.775	0.625	-1.139
Mof_H 	H 	0.7362	0.7778	0.5944	0.332
Mof_H 	H 	0.7694	0.7781	0.6268	0.33
Mof_H 	H 	0.741	0.7958	0.6426	0.388
Mof_C 	C 	0.724	0.562	0.383	-1.061
Mof_H 	H 	0.6964	0.5551	0.3727	0.311
Mof_H 	H 	0.7222	0.5392	0.399	0.321
Mof_H 	H 	0.7418	0.5683	0.3576	0.34
Mof_Zn	Zn	0.6988	0.8119	0.7775	1.129
Mof_Zn	Zn	0.6287	0.7929	0.7056	1.113
Mof_O 	O 	0.812	0.635	0.349	-0.749
Mof_O 	O 	0.695	0.769	0.735	-0.681
Mof_O 	O 	0.79	0.678	0.338	-0.769
Mof_O 	O 	0.642	0.752	0.687	-0.655
Mof_C 	C 	0.668	0.712	0.626	0.585
Mof_C 	C 	0.769	0.614	0.475	-0.6
Mof_H 	H 	0.7796	0.6021	0.4946	0.215
Mof_C 	C 	0.675	0.683	0.603	-0.517
Mof_H 	H 	0.6693	0.6788	0.5728	0.192
Mof_C 	C 	0.723	0.639	0.458	-0.666
Mof_H 	H 	0.7024	0.6447	0.4672	0.239
Mof_C 	C 	0.738	0.648	0.415	0.705
Mof_C 	C 	0.694	0.698	0.695	0.635
Mof_C 	C 	0.785	0.623	0.432	0.671
Mof_C 	C 	0.701	0.669	0.671	-0.52
Mof_H 	H 	0.7125	0.6546	0.6853	0.181
Mof_C 	C 	0.685	0.495	0.599	-3.803
Mof_H 	H 	0.6809	0.4937	0.5686	1.307
Mof_C 	C 	0.689	0.491	0.687	2.805
Mof_C 	C 	0.697	0.524	0.666	-3.389
Mof_H 	H 	0.7047	0.5477	0.684	1.092
Mof_C 	C 	0.683	0.464	0.62	2.674
Mof_O 	O 	0.638	0.394	0.694	-0.501
Mof_O 	O 	0.712	0.422	0.691	-0.545
Mof_O 	O 	0.75	0.844	0.775	-0.56
Mof_O 	O 	0.57	0.764	0.723	-0.367
Mof_C 	C 	0.489	0.717	0.729	0.357
Mof_C 	C 	0.504	0.698	0.695	-0.745
Mof_H 	H 	0.5218	0.7182	0.6737	0.24
Mof_H 	H 	0.4806	0.6755	0.6796	0.216
Mof_H 	H 	0.5193	0.6864	0.7097	0.23
Mof_C 	C 	0.889	0.92	0.777	-0.291
Mof_H 	H 	0.9032	0.9103	0.7942	0.106
Mof_C 	C 	0.445	0.696	0.729	-0.314
Mof_H 	H 	0.4301	0.6707	0.7133	0.114
Mof_C 	C 	0.845	0.898	0.777	0.382
Mof_C 	C 	0.72	0.668	0.39	-0.973
Mof_H 	H 	0.6883	0.6485	0.387	0.235
Mof_H 	H 	0.7293	0.6745	0.3595	0.322
Mof_H 	H 	0.7223	0.6926	0.4037	0.278
Mof_C 	C 	0.705	0.7	0.744	-1.358
Mof_H 	H 	0.7334	0.7113	0.7478	0.441
Mof_H 	H 	0.6868	0.6803	0.7602	0.512
Mof_H 	H 	0.7022	0.7279	0.7541	0.31
Mof_C 	C 	0.7	0.5	0.74	-3.028
Mof_H 	H 	0.7241	0.5247	0.745	1.007
Mof_H 	H 	0.6896	0.4793	0.7576	1.233
Mof_H 	H 	0.6774	0.5135	0.7484	0.443
Mof_C 	C 	0.818	0.61	0.43	-1.202
Mof_H 	H 	0.8446	0.6346	0.4252	0.371
Mof_H 	H 	0.8118	0.5914	0.4052	0.374
Mof_H 	H 	0.8179	0.5969	0.457	0.371
Mof_C 	C 	0.649	0.734	0.602	-1.116
Mof_H 	H 	0.6677	0.7505	0.5781	0.31
Mof_H 	H 	0.6462	0.7526	0.6223	0.389
Mof_H 	H 	0.6228	0.7146	0.5899	0.346
Mof_C 	C 	0.84	0.862	0.811	-1.165
Mof_H 	H 	0.8137	0.8593	0.8309	0.257
Mof_H 	H 	0.8598	0.8687	0.8274	0.489
Mof_H 	H 	0.8258	0.8364	0.795	0.37
Mof_C 	C 	0.61	0.45	0.701	0.645
Mof_H 	H 	0.6168	0.4531	0.7317	-0.189
Mof_H 	H 	0.5932	0.421	0.6935	-0.136
Mof_H 	H 	0.5948	0.464	0.6938	-0.17
Mof_C 	C 	0.816	0.718	0.428	-0.96
Mof_H 	H 	0.8351	0.7211	0.404	0.316
Mof_H 	H 	0.8318	0.7293	0.4546	0.282
Mof_H 	H 	0.8028	0.7338	0.4199	0.285
Mof_C 	C 	0.615	0.659	0.711	-1.099
Mof_H 	H 	0.6093	0.6803	0.7197	0.392
Mof_H 	H 	0.6222	0.6485	0.7369	0.314
Mof_H 	H 	0.5909	0.6364	0.6972	0.328
Mof_Zn	Zn	0.1415	0.3659	0.7612	1.096
Mof_Zn	Zn	0.1393	0.2963	0.6982	1.138
Mof_Zn	Zn	0.7193	0.3416	0.7802	1.137
Mof_O 	O 	0.094	0.354	0.725	-0.635
Mof_O 	O 	0.871	0.239	0.323	-0.719
Mof_O 	O 	0.751	0.342	0.728	-0.64
Mof_O 	O 	0.095	0.307	0.679	-0.73
Mof_C 	C 	0.041	0.322	0.671	-1.12
Mof_C 	C 	0.025	0.349	0.678	0.576
Mof_C 	C 	0.9897	0.342	0.655	-0.545
Mof_H 	H 	0.9791	0.3598	0.6601	0.202
Mof_C 	C 	0.97	0.309	0.626	0.818
Mof_C 	C 	0.987	0.283	0.619	-0.515
Mof_H 	H 	0.9737	0.261	0.5985	0.182
Mof_C 	C 	0.0224	0.29	0.641	0.613
Mof_C 	C 	0.744	0.326	0.688	1.195
Mof_O 	O 	0.858	0.175	0.351	-0.573
Mof_C 	C 	0.932	0.301	0.601	-0.659
Mof_C 	C 	0.903	0.308	0.6218	0.637
Mof_H 	H 	0.9061	0.3173	0.6509	-0.244
Mof_C 	C 	0.867	0.3	0.599	-0.874
Mof_C 	C 	0.86	0.285	0.555	0.635
Mof_H 	H 	0.8368	0.2802	0.5395	-0.244
Mof_C 	C 	0.89	0.278	0.5347	-0.662
Mof_C 	C 	0.926	0.286	0.558	0.536
Mof_H 	H 	0.9457	0.2814	0.5442	-0.19
Mof_C 	C 	0.871	0.23	0.402	-1.197
Mof_C 	C 	0.859	0.259	0.413	0.566
Mof_C 	C 	0.866	0.275	0.456	-0.518
Mof_H 	H 	0.8582	0.2949	0.4634	0.177
Mof_C 	C 	0.884	0.262	0.488	0.919
Mof_C 	C 	0.894	0.232	0.477	-0.531
Mof_H 	H 	0.9067	0.2234	0.4984	0.186
Mof_C 	C 	0.889	0.217	0.434	0.58
Mof_C 	C 	0.221	0.443	0.75	0.315
Mof_C 	C 	0.079	0.327	0.697	1.371
Mof_C 	C 	0.863	0.212	0.355	1.494
Mof_C 	C 	0.835	0.306	0.622	1.421
Mof_C 	C 	0.847	0.34	0.65	1.78
Mof_H 	H 	0.8753	0.3584	0.6558	-0.6
Mof_C 	C 	0.818	0.347	0.671	-1.358
Mof_C 	C 	0.775	0.319	0.663	-1.159
Mof_C 	C 	0.764	0.286	0.634	-1.88
Mof_C 	C 	0.793	0.279	0.614	2.307
Mof_H 	H 	0.7851	0.2566	0.5949	-0.792
Mof_O 	O 	0.712	0.327	0.669	-0.675
Mof_C 	C 	0.114	0.227	0.75	0.299
Mof_C 	C 	0.718	0.247	0.617	0.908
Mof_H 	H 	0.7081	0.256	0.5924	-0.284
Mof_H 	H 	0.6978	0.2389	0.6412	-0.215
Mof_H 	H 	0.7207	0.2237	0.6088	-0.259
Mof_O 	O 	0.111	0.239	0.712	-0.506
Mof_O 	O 	0.183	0.425	0.75	-0.471
Mof_C 	C 	0.052	0.155	0.724	0.327
Mof_C 	C 	0.251	0.555	0.771	-0.224
Mof_H 	H 	0.2394	0.5689	0.7859	0.088
Mof_C 	C 	0.03	0.111	0.724	-0.307
Mof_H 	H 	0.0059	0.0964	0.7076	0.116
Mof_C 	C 	0.029	0.17	0.693	-0.83
Mof_H 	H 	0.0026	0.1489	0.6871	0.272
Mof_H 	H 	0.0456	0.1806	0.6659	0.246
Mof_H 	H 	0.0292	0.1935	0.7076	0.259
Mof_C 	C 	0.229	0.512	0.771	0.26
Mof_C 	C 	0.192	0.5	0.797	-0.572
Mof_H 	H 	0.1666	0.4754	0.7813	0.148
Mof_H 	H 	0.1842	0.5205	0.8002	0.175
Mof_H 	H 	0.192	0.4883	0.8259	0.163
Mof_C 	C 	0.033	0.258	0.625	-1.139
Mof_H 	H 	0.0416	0.2638	0.5944	0.332
Mof_H 	H 	0.0087	0.2306	0.6268	0.33
Mof_H 	H 	0.0548	0.259	0.6426	0.388
Mof_C 	C 	0.838	0.276	0.383	-1.061
Mof_H 	H 	0.8587	0.3036	0.3727	0.311
Mof_H 	H 	0.817	0.2778	0.399	0.321
Mof_H 	H 	0.8265	0.2582	0.3576	0.34
Mof_Zn	Zn	0.1131	0.3012	0.7775	1.129
Mof_Zn	Zn	0.1642	0.3713	0.7056	1.113
Mof_O 	O 	0.823	0.188	0.349	-0.749
Mof_O 	O 	0.074	0.305	0.735	-0.681
Mof_O 	O 	0.888	0.21	0.338	-0.769
Mof_O 	O 	0.11	0.358	0.687	-0.655
Mof_C 	C 	0.044	0.332	0.626	0.585
Mof_C 	C 	0.845	0.231	0.475	-0.6
Mof_H 	H 	0.8225	0.2204	0.4946	0.215
Mof_C 	C 	0.008	0.325	0.603	-0.517
Mof_H 	H 	0.0095	0.3307	0.5728	0.192
Mof_C 	C 	0.916	0.277	0.458	-0.666
Mof_H 	H 	0.9423	0.2976	0.4672	0.239
Mof_C 	C 	0.91	0.262	0.415	0.705
Mof_C 	C 	0.004	0.306	0.695	0.634
Mof_C 	C 	0.838	0.215	0.432	0.671
Mof_C 	C 	0.968	0.299	0.671	-0.52
Mof_H 	H 	0.9421	0.2875	0.6853	0.18
Mof_C 	C 	0.81	0.315	0.599	-3.802
Mof_H 	H 	0.8128	0.3191	0.5686	1.307
Mof_C 	C 	0.802	0.311	0.687	2.804
Mof_C 	C 	0.827	0.303	0.666	-3.388
Mof_H 	H 	0.843	0.2953	0.684	1.091
Mof_C 	C 	0.781	0.317	0.62	2.673
Mof_O 	O 	0.756	0.362	0.694	-0.501
Mof_O 	O 	0.71	0.288	0.691	-0.545
Mof_O 	O 	0.094	0.25	0.775	-0.56
Mof_O 	O 	0.194	0.43	0.723	-0.367
Mof_C 	C 	0.228	0.511	0.729	0.357
Mof_C 	C 	0.194	0.496	0.695	-0.745
Mof_H 	H 	0.1964	0.4782	0.6737	0.24
Mof_H 	H 	0.1949	0.5194	0.6796	0.216
Mof_H 	H 	0.1671	0.4807	0.7097	0.23
Mof_C 	C 	0.031	0.111	0.777	-0.291
Mof_H 	H 	0.0071	0.0968	0.7942	0.106
Mof_C 	C 	0.251	0.555	0.729	-0.314
Mof_H 	H 	0.2406	0.5699	0.7133	0.114
Mof_C 	C 	0.053	0.155	0.777	0.382
Mof_C 	C 	0.948	0.28	0.39	-0.973
Mof_H 	H 	0.9602	0.3117	0.387	0.235
Mof_H 	H 	0.9452	0.2707	0.3595	0.322
Mof_H 	H 	0.9703	0.2777	0.4037	0.278
Mof_C 	C 	0.995	0.295	0.744	-1.356
Mof_H 	H 	0.9779	0.2666	0.7478	0.441
Mof_H 	H 	0.9935	0.3132	0.7602	0.511
Mof_H 	H 	0.0257	0.2978	0.7541	0.309
Mof_C 	C 	0.8	0.3	0.74	-3.027
Mof_H 	H 	0.8006	0.2759	0.745	1.007
Mof_H 	H 	0.7897	0.3104	0.7576	1.233
Mof_H 	H 	0.8361	0.3226	0.7484	0.443
Mof_C 	C 	0.792	0.182	0.43	-1.202
Mof_H 	H 	0.79	0.1554	0.4252	0.371
Mof_H 	H 	0.7796	0.1882	0.4052	0.374
Mof_H 	H 	0.779	0.1821	0.457	0.371
Mof_C 	C 	0.085	0.351	0.602	-1.116
Mof_H 	H 	0.0828	0.3323	0.5781	0.31
Mof_H 	H 	0.1064	0.3538	0.6223	0.389
Mof_H 	H 	0.0918	0.3772	0.5899	0.346
Mof_C 	C 	0.022	0.16	0.811	-1.165
Mof_H 	H 	0.0456	0.1863	0.8309	0.257
Mof_H 	H 	0.0089	0.1402	0.8274	0.489
Mof_H 	H 	0.0106	0.1742	0.795	0.37
Mof_C 	C 	0.84	0.39	0.701	0.645
Mof_H 	H 	0.8363	0.3832	0.7317	-0.189
Mof_H 	H 	0.8278	0.4068	0.6935	-0.136
Mof_H 	H 	0.8692	0.4052	0.6938	-0.169
Mof_C 	C 	0.902	0.184	0.428	-0.96
Mof_H 	H 	0.886	0.1649	0.404	0.316
Mof_H 	H 	0.8975	0.1682	0.4546	0.282
Mof_H 	H 	0.931	0.1972	0.4199	0.285
Mof_C 	C 	0.044	0.385	0.711	-1.098
Mof_H 	H 	0.071	0.3907	0.7197	0.392
Mof_H 	H 	0.0263	0.3778	0.7369	0.314
Mof_H 	H 	0.0455	0.4091	0.6972	0.328
Mof_Zn	Zn	0.2244	0.8585	0.7612	1.096
Mof_Zn	Zn	0.157	0.8607	0.6982	1.138
Mof_Zn	Zn	0.6223	0.2807	0.7802	1.137
Mof_O 	O 	0.26	0.906	0.725	-0.635
Mof_O 	O 	0.368	0.129	0.323	-0.719
Mof_O 	O 	0.591	0.249	0.728	-0.64
Mof_O 	O 	0.212	0.905	0.679	-0.73
Mof_C 	C 	0.281	0.959	0.671	-1.12
Mof_C 	C 	0.324	0.975	0.678	0.576
Mof_C 	C 	0.3523	0.0103	0.655	-0.545
Mof_H 	H 	0.3807	0.0209	0.6601	0.202
Mof_C 	C 	0.339	0.03	0.626	0.818
Mof_C 	C 	0.296	0.013	0.619	-0.515
Mof_H 	H 	0.2873	0.0263	0.5985	0.182
Mof_C 	C 	0.2676	0.9776	0.641	0.613
Mof_C 	C 	0.582	0.256	0.688	1.195
Mof_O 	O 	0.317	0.142	0.351	-0.573
Mof_C 	C 	0.369	0.068	0.601	-0.659
Mof_C 	C 	0.405	0.097	0.6218	0.637
Mof_H 	H 	0.4112	0.0939	0.6509	-0.244
Mof_C 	C 	0.433	0.133	0.599	-0.874
Mof_C 	C 	0.425	0.14	0.555	0.635
Mof_H 	H 	0.4434	0.1632	0.5395	-0.244
Mof_C 	C 	0.388	0.11	0.5347	-0.662
Mof_C 	C 	0.36	0.074	0.558	0.536
Mof_H 	H 	0.3357	0.0543	0.5442	-0.19
Mof_C 	C 	0.359	0.129	0.402	-1.197
Mof_C 	C 	0.4	0.141	0.413	0.566
Mof_C 	C 	0.409	0.134	0.456	-0.518
Mof_H 	H 	0.4367	0.1418	0.4634	0.177
Mof_C 	C 	0.378	0.116	0.488	0.919
Mof_C 	C 	0.338	0.106	0.477	-0.531
Mof_H 	H 	0.3167	0.0933	0.4984	0.186
Mof_C 	C 	0.328	0.111	0.434	0.58
Mof_C 	C 	0.222	0.779	0.75	0.315
Mof_C 	C 	0.248	0.921	0.697	1.371
Mof_C 	C 	0.349	0.137	0.355	1.494
Mof_C 	C 	0.471	0.165	0.622	1.421
Mof_C 	C 	0.493	0.153	0.65	1.78
Mof_H 	H 	0.4831	0.1247	0.6558	-0.6
Mof_C 	C 	0.529	0.182	0.671	-1.359
Mof_C 	C 	0.544	0.225	0.663	-1.159
Mof_C 	C 	0.522	0.236	0.634	-1.88
Mof_C 	C 	0.486	0.207	0.614	2.307
Mof_H 	H 	0.4715	0.2149	0.5949	-0.793
Mof_O 	O 	0.615	0.288	0.669	-0.674
Mof_C 	C 	0.113	0.886	0.75	0.299
Mof_C 	C 	0.529	0.282	0.617	0.908
Mof_H 	H 	0.5479	0.2919	0.5924	-0.284
Mof_H 	H 	0.5411	0.3022	0.6412	-0.215
Mof_H 	H 	0.503	0.2793	0.6088	-0.259
Mof_O 	O 	0.128	0.889	0.712	-0.506
Mof_O 	O 	0.242	0.817	0.75	-0.471
Mof_C 	C 	0.103	0.948	0.724	0.327
Mof_C 	C 	0.304	0.749	0.771	-0.224
Mof_H 	H 	0.3295	0.7606	0.7859	0.088
Mof_C 	C 	0.081	0.97	0.724	-0.307
Mof_H 	H 	0.0905	0.9941	0.7076	0.116
Mof_C 	C 	0.141	0.971	0.693	-0.83
Mof_H 	H 	0.1463	0.9974	0.6871	0.272
Mof_H 	H 	0.135	0.9544	0.6659	0.246
Mof_H 	H 	0.1643	0.9708	0.7076	0.259
Mof_C 	C 	0.283	0.771	0.771	0.26
Mof_C 	C 	0.308	0.808	0.797	-0.572
Mof_H 	H 	0.3088	0.8334	0.7813	0.148
Mof_H 	H 	0.3363	0.8158	0.8002	0.175
Mof_H 	H 	0.2963	0.808	0.8259	0.163
Mof_C 	C 	0.225	0.967	0.625	-1.139
Mof_H 	H 	0.2222	0.9584	0.5944	0.332
Mof_H 	H 	0.2219	0.9913	0.6268	0.33
Mof_H 	H 	0.2042	0.9452	0.6426	0.388
Mof_C 	C 	0.438	0.162	0.383	-1.061
Mof_H 	H 	0.4449	0.1413	0.3727	0.311
Mof_H 	H 	0.4608	0.183	0.399	0.321
Mof_H 	H 	0.4317	0.1735	0.3576	0.34
Mof_Zn	Zn	0.1881	0.8869	0.7775	1.129
Mof_Zn	Zn	0.2071	0.8358	0.7056	1.113
Mof_O 	O 	0.365	0.177	0.349	-0.749
Mof_O 	O 	0.231	0.926	0.735	-0.681
Mof_O 	O 	0.322	0.112	0.338	-0.769
Mof_O 	O 	0.248	0.89	0.687	-0.655
Mof_C 	C 	0.288	0.956	0.626	0.585
Mof_C 	C 	0.386	0.155	0.475	-0.6
Mof_H 	H 	0.3979	0.1775	0.4946	0.215
Mof_C 	C 	0.317	0.992	0.603	-0.517
Mof_H 	H 	0.3212	0.9905	0.5728	0.192
Mof_C 	C 	0.361	0.084	0.458	-0.666
Mof_H 	H 	0.3553	0.0577	0.4672	0.239
Mof_C 	C 	0.352	0.09	0.415	0.705
Mof_C 	C 	0.302	0.996	0.695	0.634
Mof_C 	C 	0.377	0.162	0.432	0.671
Mof_C 	C 	0.331	0.032	0.671	-0.52
Mof_H 	H 	0.3454	0.0579	0.6853	0.18
Mof_C 	C 	0.505	0.19	0.599	-3.803
Mof_H 	H 	0.5063	0.1872	0.5686	1.307
Mof_C 	C 	0.509	0.198	0.687	2.804
Mof_C 	C 	0.476	0.173	0.666	-3.389
Mof_H 	H 	0.4523	0.157	0.684	1.092
Mof_C 	C 	0.536	0.219	0.62	2.674
Mof_O 	O 	0.606	0.244	0.694	-0.501
Mof_O 	O 	0.578	0.29	0.691	-0.545
Mof_O 	O 	0.156	0.906	0.775	-0.56
Mof_O 	O 	0.236	0.806	0.723	-0.367
Mof_C 	C 	0.283	0.772	0.729	0.357
Mof_C 	C 	0.302	0.806	0.695	-0.745
Mof_H 	H 	0.2818	0.8036	0.6737	0.24
Mof_H 	H 	0.3245	0.8051	0.6796	0.216
Mof_H 	H 	0.3136	0.8329	0.7097	0.23
Mof_C 	C 	0.08	0.969	0.777	-0.291
Mof_H 	H 	0.0897	0.9929	0.7942	0.106
Mof_C 	C 	0.304	0.749	0.729	-0.314
Mof_H 	H 	0.3293	0.7594	0.7133	0.114
Mof_C 	C 	0.102	0.947	0.777	0.382
Mof_C 	C 	0.332	0.052	0.39	-0.973
Mof_H 	H 	0.3515	0.0398	0.387	0.235
Mof_H 	H 	0.3255	0.0548	0.3595	0.322
Mof_H 	H 	0.3074	0.0297	0.4037	0.278
Mof_C 	C 	0.3	0.005	0.744	-1.356
Mof_H 	H 	0.2887	0.0221	0.7478	0.441
Mof_H 	H 	0.3197	0.0065	0.7602	0.511
Mof_H 	H 	0.2721	0.9743	0.7541	0.309
Mof_C 	C 	0.5	0.2	0.74	-3.027
Mof_H 	H 	0.4753	0.1994	0.745	1.007
Mof_H 	H 	0.5207	0.2103	0.7576	1.233
Mof_H 	H 	0.4865	0.1639	0.7484	0.443
Mof_C 	C 	0.39	0.208	0.43	-1.202
Mof_H 	H 	0.3654	0.21	0.4252	0.371
Mof_H 	H 	0.4086	0.2204	0.4052	0.374
Mof_H 	H 	0.4031	0.221	0.457	0.371
Mof_C 	C 	0.266	0.915	0.602	-1.116
Mof_H 	H 	0.2495	0.9172	0.5781	0.31
Mof_H 	H 	0.2474	0.8936	0.6223	0.389
Mof_H 	H 	0.2854	0.9082	0.5899	0.346
Mof_C 	C 	0.138	0.978	0.811	-1.165
Mof_H 	H 	0.1407	0.9544	0.8309	0.256
Mof_H 	H 	0.1313	0.9911	0.8274	0.489
Mof_H 	H 	0.1636	0.9894	0.795	0.369
Mof_C 	C 	0.55	0.16	0.701	0.645
Mof_H 	H 	0.5469	0.1637	0.7317	-0.189
Mof_H 	H 	0.579	0.1722	0.6935	-0.136
Mof_H 	H 	0.536	0.1308	0.6938	-0.169
Mof_C 	C 	0.282	0.098	0.428	-0.96
Mof_H 	H 	0.2789	0.114	0.404	0.316
Mof_H 	H 	0.2707	0.1025	0.4546	0.282
Mof_H 	H 	0.2662	0.069	0.4199	0.285
Mof_C 	C 	0.341	0.956	0.711	-1.098
Mof_H 	H 	0.3197	0.929	0.7197	0.392
Mof_H 	H 	0.3515	0.9737	0.7369	0.314
Mof_H 	H 	0.3636	0.9545	0.6972	0.328
Mof_Zn	Zn	0.7756	0.6341	0.2612	1.096
Mof_Zn	Zn	0.843	0.7037	0.1982	1.138
Mof_Zn	Zn	0.3777	0.6584	0.2802	1.137
Mof_O 	O 	0.74	0.646	0.225	-0.636
Mof_O 	O 	0.632	0.761	0.823	-0.719
Mof_O 	O 	0.409	0.658	0.228	-0.64
Mof_O 	O 	0.788	0.693	0.179	-0.73
Mof_C 	C 	0.719	0.678	0.171	-1.121
Mof_C 	C 	0.676	0.651	0.178	0.577
Mof_C 	C 	0.6477	0.658	0.155	-0.545
Mof_H 	H 	0.6193	0.6402	0.1601	0.202
Mof_C 	C 	0.661	0.691	0.126	0.818
Mof_C 	C 	0.704	0.717	0.119	-0.516
Mof_H 	H 	0.7127	0.739	0.0985	0.182
Mof_C 	C 	0.7324	0.71	0.141	0.613
Mof_C 	C 	0.418	0.674	0.188	1.195
Mof_O 	O 	0.683	0.825	0.851	-0.573
Mof_C 	C 	0.631	0.699	0.101	-0.659
Mof_C 	C 	0.595	0.692	0.1218	0.637
Mof_H 	H 	0.5888	0.6827	0.1509	-0.244
Mof_C 	C 	0.567	0.7	0.099	-0.874
Mof_C 	C 	0.575	0.715	0.055	0.635
Mof_H 	H 	0.5566	0.7198	0.0395	-0.244
Mof_C 	C 	0.612	0.722	0.0347	-0.662
Mof_C 	C 	0.64	0.714	0.058	0.536
Mof_H 	H 	0.6643	0.7186	0.0442	-0.19
Mof_C 	C 	0.641	0.77	0.902	-1.197
Mof_C 	C 	0.6	0.741	0.913	0.566
Mof_C 	C 	0.591	0.725	0.956	-0.518
Mof_H 	H 	0.5633	0.7051	0.9634	0.177
Mof_C 	C 	0.622	0.738	0.988	0.919
Mof_C 	C 	0.662	0.768	0.977	-0.531
Mof_H 	H 	0.6833	0.7766	0.9984	0.186
Mof_C 	C 	0.672	0.783	0.934	0.58
Mof_C 	C 	0.778	0.557	0.25	0.315
Mof_C 	C 	0.752	0.673	0.197	1.371
Mof_C 	C 	0.651	0.788	0.855	1.494
Mof_C 	C 	0.529	0.694	0.122	1.422
Mof_C 	C 	0.507	0.66	0.15	1.78
Mof_H 	H 	0.5169	0.6416	0.1558	-0.6
Mof_C 	C 	0.471	0.653	0.171	-1.359
Mof_C 	C 	0.456	0.681	0.163	-1.159
Mof_C 	C 	0.478	0.714	0.134	-1.88
Mof_C 	C 	0.514	0.721	0.114	2.307
Mof_H 	H 	0.5285	0.7434	0.0949	-0.792
Mof_O 	O 	0.385	0.673	0.169	-0.674
Mof_C 	C 	0.887	0.773	0.25	0.299
Mof_C 	C 	0.471	0.753	0.117	0.908
Mof_H 	H 	0.4521	0.744	0.0924	-0.283
Mof_H 	H 	0.4589	0.7611	0.1412	-0.215
Mof_H 	H 	0.497	0.7763	0.1088	-0.259
Mof_O 	O 	0.872	0.761	0.212	-0.506
Mof_O 	O 	0.758	0.575	0.25	-0.471
Mof_C 	C 	0.897	0.845	0.224	0.327
Mof_C 	C 	0.696	0.445	0.271	-0.224
Mof_H 	H 	0.6705	0.4311	0.2859	0.088
Mof_C 	C 	0.919	0.889	0.224	-0.307
Mof_H 	H 	0.9095	0.9036	0.2076	0.116
Mof_C 	C 	0.859	0.83	0.193	-0.83
Mof_H 	H 	0.8537	0.8511	0.1871	0.272
Mof_H 	H 	0.865	0.8194	0.1659	0.246
Mof_H 	H 	0.8357	0.8065	0.2076	0.26
Mof_C 	C 	0.717	0.488	0.271	0.26
Mof_C 	C 	0.692	0.5	0.297	-0.572
Mof_H 	H 	0.6912	0.5246	0.2813	0.148
Mof_H 	H 	0.6637	0.4795	0.3002	0.175
Mof_H 	H 	0.7037	0.5117	0.3259	0.163
Mof_C 	C 	0.775	0.742	0.125	-1.14
Mof_H 	H 	0.7778	0.7362	0.0944	0.332
Mof_H 	H 	0.7781	0.7694	0.1268	0.33
Mof_H 	H 	0.7958	0.741	0.1426	0.388
Mof_C 	C 	0.562	0.724	0.883	-1.061
Mof_H 	H 	0.5551	0.6964	0.8727	0.311
Mof_H 	H 	0.5392	0.7222	0.899	0.321
Mof_H 	H 	0.5683	0.7418	0.8576	0.34
Mof_Zn	Zn	0.8119	0.6988	0.2775	1.129
Mof_Zn	Zn	0.7929	0.6287	0.2056	1.113
Mof_O 	O 	0.635	0.812	0.849	-0.749
Mof_O 	O 	0.769	0.695	0.235	-0.681
Mof_O 	O 	0.678	0.79	0.838	-0.769
Mof_O 	O 	0.752	0.642	0.187	-0.655
Mof_C 	C 	0.712	0.668	0.126	0.585
Mof_C 	C 	0.614	0.769	0.975	-0.6
Mof_H 	H 	0.6021	0.7796	0.9946	0.215
Mof_C 	C 	0.683	0.675	0.103	-0.517
Mof_H 	H 	0.6788	0.6693	0.0728	0.192
Mof_C 	C 	0.639	0.723	0.958	-0.666
Mof_H 	H 	0.6447	0.7024	0.9672	0.239
Mof_C 	C 	0.648	0.738	0.915	0.705
Mof_C 	C 	0.698	0.694	0.195	0.635
Mof_C 	C 	0.623	0.785	0.932	0.671
Mof_C 	C 	0.669	0.701	0.171	-0.52
Mof_H 	H 	0.6546	0.7125	0.1853	0.181
Mof_C 	C 	0.495	0.685	0.099	-3.803
Mof_H 	H 	0.4937	0.6809	0.0686	1.307
Mof_C 	C 	0.491	0.689	0.187	2.804
Mof_C 	C 	0.524	0.697	0.166	-3.389
Mof_H 	H 	0.5477	0.7047	0.184	1.092
Mof_C 	C 	0.464	0.683	0.12	2.674
Mof_O 	O 	0.394	0.638	0.194	-0.501
Mof_O 	O 	0.422	0.712	0.191	-0.545
Mof_O 	O 	0.844	0.75	0.275	-0.56
Mof_O 	O 	0.764	0.57	0.223	-0.367
Mof_C 	C 	0.717	0.489	0.229	0.357
Mof_C 	C 	0.698	0.504	0.195	-0.745
Mof_H 	H 	0.7182	0.5218	0.1737	0.24
Mof_H 	H 	0.6755	0.4806	0.1796	0.216
Mof_H 	H 	0.6864	0.5193	0.2097	0.23
Mof_C 	C 	0.92	0.889	0.277	-0.291
Mof_H 	H 	0.9103	0.9032	0.2942	0.106
Mof_C 	C 	0.696	0.445	0.229	-0.314
Mof_H 	H 	0.6707	0.4301	0.2133	0.114
Mof_C 	C 	0.898	0.845	0.277	0.382
Mof_C 	C 	0.668	0.72	0.89	-0.973
Mof_H 	H 	0.6485	0.6883	0.887	0.235
Mof_H 	H 	0.6745	0.7293	0.8595	0.322
Mof_H 	H 	0.6926	0.7223	0.9037	0.279
Mof_C 	C 	0.7	0.705	0.244	-1.358
Mof_H 	H 	0.7113	0.7334	0.2478	0.441
Mof_H 	H 	0.6803	0.6868	0.2602	0.512
Mof_H 	H 	0.7279	0.7022	0.2541	0.31
Mof_C 	C 	0.5	0.7	0.24	-3.027
Mof_H 	H 	0.5247	0.7241	0.245	1.007
Mof_H 	H 	0.4793	0.6896	0.2576	1.233
Mof_H 	H 	0.5135	0.6774	0.2484	0.443
Mof_C 	C 	0.61	0.818	0.93	-1.202
Mof_H 	H 	0.6346	0.8446	0.9252	0.371
Mof_H 	H 	0.5914	0.8118	0.9052	0.374
Mof_H 	H 	0.5969	0.8179	0.957	0.371
Mof_C 	C 	0.734	0.649	0.102	-1.116
Mof_H 	H 	0.7505	0.6677	0.0781	0.31
Mof_H 	H 	0.7526	0.6462	0.1223	0.389
Mof_H 	H 	0.7146	0.6228	0.0899	0.346
Mof_C 	C 	0.862	0.84	0.311	-1.165
Mof_H 	H 	0.8593	0.8137	0.3309	0.257
Mof_H 	H 	0.8687	0.8598	0.3274	0.489
Mof_H 	H 	0.8364	0.8258	0.295	0.37
Mof_C 	C 	0.45	0.61	0.201	0.645
Mof_H 	H 	0.4531	0.6168	0.2317	-0.189
Mof_H 	H 	0.421	0.5932	0.1935	-0.136
Mof_H 	H 	0.464	0.5948	0.1938	-0.169
Mof_C 	C 	0.718	0.816	0.928	-0.96
Mof_H 	H 	0.7211	0.8351	0.904	0.316
Mof_H 	H 	0.7293	0.8318	0.9546	0.282
Mof_H 	H 	0.7338	0.8028	0.9199	0.285
Mof_C 	C 	0.659	0.615	0.211	-1.099
Mof_H 	H 	0.6803	0.6093	0.2197	0.392
Mof_H 	H 	0.6485	0.6222	0.2369	0.314
Mof_H 	H 	0.6364	0.5909	0.1972	0.328
Mof_Zn	Zn	0.3659	0.1415	0.2612	1.096
Mof_Zn	Zn	0.2963	0.1393	0.1982	1.138
Mof_Zn	Zn	0.3416	0.7193	0.2802	1.137
Mof_O 	O 	0.354	0.094	0.225	-0.635
Mof_O 	O 	0.239	0.871	0.823	-0.719
Mof_O 	O 	0.342	0.751	0.228	-0.64
Mof_O 	O 	0.307	0.095	0.179	-0.73
Mof_C 	C 	0.322	0.041	0.171	-1.12
Mof_C 	C 	0.349	0.025	0.178	0.576
Mof_C 	C 	0.342	0.9897	0.155	-0.544
Mof_H 	H 	0.3598	0.9791	0.1601	0.202
Mof_C 	C 	0.309	0.97	0.126	0.817
Mof_C 	C 	0.283	0.987	0.119	-0.514
Mof_H 	H 	0.261	0.9737	0.0985	0.182
Mof_C 	C 	0.29	0.0224	0.141	0.612
Mof_C 	C 	0.326	0.744	0.188	1.195
Mof_O 	O 	0.175	0.858	0.851	-0.573
Mof_C 	C 	0.301	0.932	0.101	-0.658
Mof_C 	C 	0.308	0.903	0.1218	0.636
Mof_H 	H 	0.3173	0.9061	0.1509	-0.244
Mof_C 	C 	0.3	0.867	0.099	-0.873
Mof_C 	C 	0.285	0.86	0.055	0.634
Mof_H 	H 	0.2802	0.8368	0.0395	-0.244
Mof_C 	C 	0.278	0.89	0.0347	-0.661
Mof_C 	C 	0.286	0.926	0.058	0.535
Mof_H 	H 	0.2814	0.9457	0.0442	-0.19
Mof_C 	C 	0.23	0.871	0.902	-1.196
Mof_C 	C 	0.259	0.859	0.913	0.565
Mof_C 	C 	0.275	0.866	0.956	-0.518
Mof_H 	H 	0.2949	0.8582	0.9634	0.177
Mof_C 	C 	0.262	0.884	0.988	0.917
Mof_C 	C 	0.232	0.894	0.977	-0.53
Mof_H 	H 	0.2234	0.9067	0.9984	0.186
Mof_C 	C 	0.217	0.889	0.934	0.58
Mof_C 	C 	0.443	0.221	0.25	0.315
Mof_C 	C 	0.327	0.079	0.197	1.371
Mof_C 	C 	0.212	0.863	0.855	1.493
Mof_C 	C 	0.306	0.835	0.122	1.42
Mof_C 	C 	0.34	0.847	0.15	1.778
Mof_H 	H 	0.3584	0.8753	0.1558	-0.599
Mof_C 	C 	0.347	0.818	0.171	-1.357
Mof_C 	C 	0.319	0.775	0.163	-1.159
Mof_C 	C 	0.286	0.764	0.134	-1.878
Mof_C 	C 	0.279	0.793	0.114	2.305
Mof_H 	H 	0.2566	0.7851	0.0949	-0.791
Mof_O 	O 	0.327	0.712	0.169	-0.674
Mof_C 	C 	0.227	0.114	0.25	0.299
Mof_C 	C 	0.247	0.718	0.117	0.906
Mof_H 	H 	0.256	0.7081	0.0924	-0.283
Mof_H 	H 	0.2389	0.6978	0.1412	-0.214
Mof_H 	H 	0.2237	0.7207	0.1088	-0.259
Mof_O 	O 	0.239	0.111	0.212	-0.506
Mof_O 	O 	0.425	0.183	0.25	-0.471
Mof_C 	C 	0.155	0.052	0.224	0.327
Mof_C 	C 	0.555	0.251	0.271	-0.224
Mof_H 	H 	0.5689	0.2394	0.2859	0.088
Mof_C 	C 	0.111	0.03	0.224	-0.307
Mof_H 	H 	0.0964	0.0059	0.2076	0.116
Mof_C 	C 	0.17	0.029	0.193	-0.83
Mof_H 	H 	0.1489	0.0026	0.1871	0.272
Mof_H 	H 	0.1806	0.0456	0.1659	0.246
Mof_H 	H 	0.1935	0.0292	0.2076	0.26
Mof_C 	C 	0.512	0.229	0.271	0.26
Mof_C 	C 	0.5	0.192	0.297	-0.572
Mof_H 	H 	0.4754	0.1666	0.2813	0.148
Mof_H 	H 	0.5205	0.1842	0.3002	0.175
Mof_H 	H 	0.4883	0.192	0.3259	0.163
Mof_C 	C 	0.258	0.033	0.125	-1.138
Mof_H 	H 	0.2638	0.0416	0.0944	0.331
Mof_H 	H 	0.2306	0.0087	0.1268	0.33
Mof_H 	H 	0.259	0.0548	0.1426	0.388
Mof_C 	C 	0.276	0.838	0.883	-1.061
Mof_H 	H 	0.3036	0.8587	0.8727	0.311
Mof_H 	H 	0.2778	0.817	0.899	0.321
Mof_H 	H 	0.2582	0.8265	0.8576	0.34
Mof_Zn	Zn	0.3012	0.1131	0.2775	1.129
Mof_Zn	Zn	0.3713	0.1642	0.2056	1.113
Mof_O 	O 	0.188	0.823	0.849	-0.749
Mof_O 	O 	0.305	0.074	0.235	-0.681
Mof_O 	O 	0.21	0.888	0.838	-0.769
Mof_O 	O 	0.358	0.11	0.187	-0.655
Mof_C 	C 	0.332	0.044	0.126	0.585
Mof_C 	C 	0.231	0.845	0.975	-0.599
Mof_H 	H 	0.2204	0.8225	0.9946	0.215
Mof_C 	C 	0.325	0.008	0.103	-0.518
Mof_H 	H 	0.3307	0.0095	0.0728	0.192
Mof_C 	C 	0.277	0.916	0.958	-0.665
Mof_H 	H 	0.2976	0.9423	0.9672	0.239
Mof_C 	C 	0.262	0.91	0.915	0.704
Mof_C 	C 	0.306	0.004	0.195	0.634
Mof_C 	C 	0.215	0.838	0.932	0.67
Mof_C 	C 	0.299	0.968	0.171	-0.52
Mof_H 	H 	0.2875	0.9421	0.1853	0.18
Mof_C 	C 	0.315	0.81	0.099	-3.799
Mof_H 	H 	0.3191	0.8128	0.0686	1.306
Mof_C 	C 	0.311	0.802	0.187	2.802
Mof_C 	C 	0.303	0.827	0.166	-3.386
Mof_H 	H 	0.2953	0.843	0.184	1.091
Mof_C 	C 	0.317	0.781	0.12	2.671
Mof_O 	O 	0.362	0.756	0.194	-0.501
Mof_O 	O 	0.288	0.71	0.191	-0.545
Mof_O 	O 	0.25	0.094	0.275	-0.56
Mof_O 	O 	0.43	0.194	0.223	-0.367
Mof_C 	C 	0.511	0.228	0.229	0.357
Mof_C 	C 	0.496	0.194	0.195	-0.745
Mof_H 	H 	0.4782	0.1964	0.1737	0.24
Mof_H 	H 	0.5194	0.1949	0.1796	0.216
Mof_H 	H 	0.4807	0.1671	0.2097	0.23
Mof_C 	C 	0.111	0.031	0.277	-0.291
Mof_H 	H 	0.0968	0.0071	0.2942	0.106
Mof_C 	C 	0.555	0.251	0.229	-0.314
Mof_H 	H 	0.5699	0.2406	0.2133	0.114
Mof_C 	C 	0.155	0.053	0.277	0.382
Mof_C 	C 	0.28	0.948	0.89	-0.972
Mof_H 	H 	0.3117	0.9602	0.887	0.235
Mof_H 	H 	0.2707	0.9452	0.8595	0.322
Mof_H 	H 	0.2777	0.9703	0.9037	0.278
Mof_C 	C 	0.295	0.995	0.244	-1.356
Mof_H 	H 	0.2666	0.9779	0.2478	0.441
Mof_H 	H 	0.3132	0.9935	0.2602	0.511
Mof_H 	H 	0.2978	0.0257	0.2541	0.309
Mof_C 	C 	0.3	0.8	0.24	-3.025
Mof_H 	H 	0.2759	0.8006	0.245	1.006
Mof_H 	H 	0.3104	0.7897	0.2576	1.232
Mof_H 	H 	0.3226	0.8361	0.2484	0.443
Mof_C 	C 	0.182	0.792	0.93	-1.201
Mof_H 	H 	0.1554	0.79	0.9252	0.371
Mof_H 	H 	0.1882	0.7796	0.9052	0.374
Mof_H 	H 	0.1821	0.779	0.957	0.371
Mof_C 	C 	0.351	0.085	0.102	-1.117
Mof_H 	H 	0.3323	0.0828	0.0781	0.31
Mof_H 	H 	0.3538	0.1064	0.1223	0.389
Mof_H 	H 	0.3772	0.0918	0.0899	0.346
Mof_C 	C 	0.16	0.022	0.311	-1.165
Mof_H 	H 	0.1863	0.0456	0.3309	0.257
Mof_H 	H 	0.1402	0.0089	0.3274	0.489
Mof_H 	H 	0.1742	0.0106	0.295	0.37
Mof_C 	C 	0.39	0.84	0.201	0.644
Mof_H 	H 	0.3832	0.8363	0.2317	-0.188
Mof_H 	H 	0.4068	0.8278	0.1935	-0.135
Mof_H 	H 	0.4052	0.8692	0.1938	-0.169
Mof_C 	C 	0.184	0.902	0.928	-0.959
Mof_H 	H 	0.1649	0.886	0.904	0.316
Mof_H 	H 	0.1682	0.8975	0.9546	0.282
Mof_H 	H 	0.1972	0.931	0.9199	0.285
Mof_C 	C 	0.385	0.044	0.211	-1.097
Mof_H 	H 	0.3907	0.071	0.2197	0.392
Mof_H 	H 	0.3778	0.0263	0.2369	0.314
Mof_H 	H 	0.4091	0.0455	0.1972	0.328
Mof_Zn	Zn	0.8585	0.2244	0.2612	1.096
Mof_Zn	Zn	0.8607	0.157	0.1982	1.138
Mof_Zn	Zn	0.2807	0.6223	0.2802	1.137
Mof_O 	O 	0.906	0.26	0.225	-0.635
Mof_O 	O 	0.129	0.368	0.823	-0.719
Mof_O 	O 	0.249	0.591	0.228	-0.64
Mof_O 	O 	0.905	0.212	0.179	-0.73
Mof_C 	C 	0.959	0.281	0.171	-1.12
Mof_C 	C 	0.975	0.324	0.178	0.576
Mof_C 	C 	0.0103	0.3523	0.155	-0.544
Mof_H 	H 	0.0209	0.3807	0.1601	0.202
Mof_C 	C 	0.03	0.339	0.126	0.817
Mof_C 	C 	0.013	0.296	0.119	-0.514
Mof_H 	H 	0.0263	0.2873	0.0985	0.182
Mof_C 	C 	0.9776	0.2676	0.141	0.612
Mof_C 	C 	0.256	0.582	0.188	1.195
Mof_O 	O 	0.142	0.317	0.851	-0.573
Mof_C 	C 	0.068	0.369	0.101	-0.659
Mof_C 	C 	0.097	0.405	0.1218	0.637
Mof_H 	H 	0.0939	0.4112	0.1509	-0.244
Mof_C 	C 	0.133	0.433	0.099	-0.873
Mof_C 	C 	0.14	0.425	0.055	0.634
Mof_H 	H 	0.1632	0.4434	0.0395	-0.244
Mof_C 	C 	0.11	0.388	0.0347	-0.662
Mof_C 	C 	0.074	0.36	0.058	0.535
Mof_H 	H 	0.0543	0.3357	0.0442	-0.19
Mof_C 	C 	0.129	0.359	0.902	-1.196
Mof_C 	C 	0.141	0.4	0.913	0.565
Mof_C 	C 	0.134	0.409	0.956	-0.518
Mof_H 	H 	0.1418	0.4367	0.9634	0.177
Mof_C 	C 	0.116	0.378	0.988	0.918
Mof_C 	C 	0.106	0.338	0.977	-0.53
Mof_H 	H 	0.0933	0.3167	0.9984	0.186
Mof_C 	C 	0.111	0.328	0.934	0.58
Mof_C 	C 	0.779	0.222	0.25	0.315
Mof_C 	C 	0.921	0.248	0.197	1.371
Mof_C 	C 	0.137	0.349	0.855	1.494
Mof_C 	C 	0.165	0.471	0.122	1.421
Mof_C 	C 	0.153	0.493	0.15	1.78
Mof_H 	H 	0.1247	0.4831	0.1558	-0.6
Mof_C 	C 	0.182	0.529	0.171	-1.358
Mof_C 	C 	0.225	0.544	0.163	-1.159
Mof_C 	C 	0.236	0.522	0.134	-1.88
Mof_C 	C 	0.207	0.486	0.114	2.307
Mof_H 	H 	0.2149	0.4715	0.0949	-0.792
Mof_O 	O 	0.288	0.615	0.169	-0.674
Mof_C 	C 	0.886	0.113	0.25	0.299
Mof_C 	C 	0.282	0.529	0.117	0.908
Mof_H 	H 	0.2919	0.5479	0.0924	-0.283
Mof_H 	H 	0.3022	0.5411	0.1412	-0.215
Mof_H 	H 	0.2793	0.503	0.1088	-0.259
Mof_O 	O 	0.889	0.128	0.212	-0.506
Mof_O 	O 	0.817	0.242	0.25	-0.471
Mof_C 	C 	0.948	0.103	0.224	0.327
Mof_C 	C 	0.749	0.304	0.271	-0.224
Mof_H 	H 	0.7606	0.3295	0.2859	0.088
Mof_C 	C 	0.97	0.081	0.224	-0.307
Mof_H 	H 	0.9941	0.0905	0.2076	0.116
Mof_C 	C 	0.971	0.141	0.193	-0.829
Mof_H 	H 	0.9974	0.1463	0.1871	0.271
Mof_H 	H 	0.9544	0.135	0.1659	0.246
Mof_H 	H 	0.9708	0.1643	0.2076	0.259
Mof_C 	C 	0.771	0.283	0.271	0.26
Mof_C 	C 	0.808	0.308	0.297	-0.572
Mof_H 	H 	0.8334	0.3088	0.2813	0.148
Mof_H 	H 	0.8158	0.3363	0.3002	0.175
Mof_H 	H 	0.808	0.2963	0.3259	0.163
Mof_C 	C 	0.967	0.225	0.125	-1.138
Mof_H 	H 	0.9584	0.2222	0.0944	0.331
Mof_H 	H 	0.9913	0.2219	0.1268	0.33
Mof_H 	H 	0.9452	0.2042	0.1426	0.388
Mof_C 	C 	0.162	0.438	0.883	-1.061
Mof_H 	H 	0.1413	0.4449	0.8727	0.311
Mof_H 	H 	0.183	0.4608	0.899	0.321
Mof_H 	H 	0.1735	0.4317	0.8576	0.34
Mof_Zn	Zn	0.8869	0.1881	0.2775	1.129
Mof_Zn	Zn	0.8358	0.2071	0.2056	1.113
Mof_O 	O 	0.177	0.365	0.849	-0.749
Mof_O 	O 	0.926	0.231	0.235	-0.681
Mof_O 	O 	0.112	0.322	0.838	-0.769
Mof_O 	O 	0.89	0.248	0.187	-0.655
Mof_C 	C 	0.956	0.288	0.126	0.585
Mof_C 	C 	0.155	0.386	0.975	-0.6
Mof_H 	H 	0.1775	0.3979	0.9946	0.215
Mof_C 	C 	0.992	0.317	0.103	-0.518
Mof_H 	H 	0.9905	0.3212	0.0728	0.192
Mof_C 	C 	0.084	0.361	0.958	-0.666
Mof_H 	H 	0.0577	0.3553	0.9672	0.239
Mof_C 	C 	0.09	0.352	0.915	0.705
Mof_C 	C 	0.996	0.302	0.195	0.634
Mof_C 	C 	0.162	0.377	0.932	0.671
Mof_C 	C 	0.032	0.331	0.171	-0.52
Mof_H 	H 	0.0579	0.3454	0.1853	0.18
Mof_C 	C 	0.19	0.505	0.099	-3.801
Mof_H 	H 	0.1872	0.5063	0.0686	1.307
Mof_C 	C 	0.198	0.509	0.187	2.804
Mof_C 	C 	0.173	0.476	0.166	-3.388
Mof_H 	H 	0.157	0.4523	0.184	1.091
Mof_C 	C 	0.219	0.536	0.12	2.673
Mof_O 	O 	0.244	0.606	0.194	-0.501
Mof_O 	O 	0.29	0.578	0.191	-0.545
Mof_O 	O 	0.906	0.156	0.275	-0.56
Mof_O 	O 	0.806	0.236	0.223	-0.367
Mof_C 	C 	0.772	0.283	0.229	0.357
Mof_C 	C 	0.806	0.302	0.195	-0.745
Mof_H 	H 	0.8036	0.2818	0.1737	0.24
Mof_H 	H 	0.8051	0.3245	0.1796	0.216
Mof_H 	H 	0.8329	0.3136	0.2097	0.23
Mof_C 	C 	0.969	0.08	0.277	-0.291
Mof_H 	H 	0.9929	0.0897	0.2942	0.106
Mof_C 	C 	0.749	0.304	0.229	-0.314
Mof_H 	H 	0.7594	0.3293	0.2133	0.114
Mof_C 	C 	0.947	0.102	0.277	0.382
Mof_C 	C 	0.052	0.332	0.89	-0.972
Mof_H 	H 	0.0398	0.3515	0.887	0.235
Mof_H 	H 	0.0548	0.3255	0.8595	0.322
Mof_H 	H 	0.0297	0.3074	0.9037	0.278
Mof_C 	C 	0.005	0.3	0.244	-1.356
Mof_H 	H 	0.0221	0.2887	0.2478	0.441
Mof_H 	H 	0.0065	0.3197	0.2602	0.511
Mof_H 	H 	0.9743	0.2721	0.2541	0.309
Mof_C 	C 	0.2	0.5	0.24	-3.027
Mof_H 	H 	0.1994	0.4753	0.245	1.007
Mof_H 	H 	0.2103	0.5207	0.2576	1.232
Mof_H 	H 	0.1639	0.4865	0.2484	0.443
Mof_C 	C 	0.208	0.39	0.93	-1.202
Mof_H 	H 	0.21	0.3654	0.9252	0.371
Mof_H 	H 	0.2204	0.4086	0.9052	0.374
Mof_H 	H 	0.221	0.4031	0.957	0.371
Mof_C 	C 	0.915	0.266	0.102	-1.117
Mof_H 	H 	0.9172	0.2495	0.0781	0.31
Mof_H 	H 	0.8936	0.2474	0.1223	0.389
Mof_H 	H 	0.9082	0.2854	0.0899	0.346
Mof_C 	C 	0.978	0.138	0.311	-1.165
Mof_H 	H 	0.9544	0.1407	0.3309	0.257
Mof_H 	H 	0.9911	0.1313	0.3274	0.489
Mof_H 	H 	0.9894	0.1636	0.295	0.369
Mof_C 	C 	0.16	0.55	0.201	0.645
Mof_H 	H 	0.1637	0.5469	0.2317	-0.189
Mof_H 	H 	0.1722	0.579	0.1935	-0.135
Mof_H 	H 	0.1308	0.536	0.1938	-0.169
Mof_C 	C 	0.098	0.282	0.928	-0.96
Mof_H 	H 	0.114	0.2789	0.904	0.316
Mof_H 	H 	0.1025	0.2707	0.9546	0.282
Mof_H 	H 	0.069	0.2662	0.9199	0.285
Mof_C 	C 	0.956	0.341	0.211	-1.097
Mof_H 	H 	0.929	0.3197	0.2197	0.392
Mof_H 	H 	0.9737	0.3515	0.2369	0.314
Mof_H 	H 	0.9545	0.3636	0.1972	0.328
Mof_Zn	Zn	0.3659	0.2244	0.2388	1.096
Mof_Zn	Zn	0.2963	0.157	0.3018	1.138
Mof_Zn	Zn	0.3416	0.6223	0.2198	1.137
Mof_O 	O 	0.354	0.26	0.275	-0.636
Mof_O 	O 	0.239	0.368	0.677	-0.719
Mof_O 	O 	0.342	0.591	0.272	-0.64
Mof_O 	O 	0.307	0.212	0.321	-0.73
Mof_C 	C 	0.322	0.281	0.329	-1.121
Mof_C 	C 	0.349	0.324	0.322	0.577
Mof_C 	C 	0.342	0.3523	0.345	-0.545
Mof_H 	H 	0.3598	0.3807	0.3399	0.202
Mof_C 	C 	0.309	0.339	0.374	0.818
Mof_C 	C 	0.283	0.296	0.381	-0.516
Mof_H 	H 	0.261	0.2873	0.4015	0.182
Mof_C 	C 	0.29	0.2676	0.359	0.613
Mof_C 	C 	0.326	0.582	0.312	1.195
Mof_O 	O 	0.175	0.317	0.649	-0.573
Mof_C 	C 	0.301	0.369	0.399	-0.659
Mof_C 	C 	0.308	0.405	0.3782	0.637
Mof_H 	H 	0.3173	0.4112	0.3491	-0.244
Mof_C 	C 	0.3	0.433	0.401	-0.874
Mof_C 	C 	0.285	0.425	0.445	0.635
Mof_H 	H 	0.2802	0.4434	0.4605	-0.244
Mof_C 	C 	0.278	0.388	0.4653	-0.663
Mof_C 	C 	0.286	0.36	0.442	0.536
Mof_H 	H 	0.2814	0.3357	0.4558	-0.19
Mof_C 	C 	0.23	0.359	0.598	-1.197
Mof_C 	C 	0.259	0.4	0.587	0.566
Mof_C 	C 	0.275	0.409	0.544	-0.518
Mof_H 	H 	0.2949	0.4367	0.5366	0.177
Mof_C 	C 	0.262	0.378	0.512	0.919
Mof_C 	C 	0.232	0.338	0.523	-0.531
Mof_H 	H 	0.2234	0.3167	0.5016	0.186
Mof_C 	C 	0.217	0.328	0.566	0.58
Mof_C 	C 	0.443	0.222	0.25	0.315
Mof_C 	C 	0.327	0.248	0.303	1.371
Mof_C 	C 	0.212	0.349	0.645	1.494
Mof_C 	C 	0.306	0.471	0.378	1.422
Mof_C 	C 	0.34	0.493	0.35	1.78
Mof_H 	H 	0.3584	0.4831	0.3442	-0.6
Mof_C 	C 	0.347	0.529	0.329	-1.359
Mof_C 	C 	0.319	0.544	0.337	-1.159
Mof_C 	C 	0.286	0.522	0.366	-1.881
Mof_C 	C 	0.279	0.486	0.386	2.308
Mof_H 	H 	0.2566	0.4715	0.4051	-0.793
Mof_O 	O 	0.327	0.615	0.331	-0.674
Mof_C 	C 	0.227	0.113	0.25	0.299
Mof_C 	C 	0.247	0.529	0.383	0.908
Mof_H 	H 	0.256	0.5479	0.4076	-0.284
Mof_H 	H 	0.2389	0.5411	0.3588	-0.215
Mof_H 	H 	0.2237	0.503	0.3912	-0.259
Mof_O 	O 	0.239	0.128	0.288	-0.506
Mof_O 	O 	0.425	0.242	0.25	-0.471
Mof_C 	C 	0.155	0.103	0.276	0.327
Mof_C 	C 	0.555	0.304	0.229	-0.224
Mof_H 	H 	0.5689	0.3295	0.2141	0.088
Mof_C 	C 	0.111	0.081	0.276	-0.307
Mof_H 	H 	0.0964	0.0905	0.2924	0.116
Mof_C 	C 	0.17	0.141	0.307	-0.83
Mof_H 	H 	0.1489	0.1463	0.3129	0.272
Mof_H 	H 	0.1806	0.135	0.3341	0.246
Mof_H 	H 	0.1935	0.1643	0.2924	0.259
Mof_C 	C 	0.512	0.283	0.229	0.26
Mof_C 	C 	0.5	0.308	0.203	-0.572
Mof_H 	H 	0.4754	0.3088	0.2187	0.148
Mof_H 	H 	0.5205	0.3363	0.1998	0.175
Mof_H 	H 	0.4883	0.2963	0.1741	0.163
Mof_C 	C 	0.258	0.225	0.375	-1.139
Mof_H 	H 	0.2638	0.2222	0.4056	0.332
Mof_H 	H 	0.2306	0.2219	0.3732	0.33
Mof_H 	H 	0.259	0.2042	0.3574	0.388
Mof_C 	C 	0.276	0.438	0.617	-1.061
Mof_H 	H 	0.3036	0.4449	0.6273	0.311
Mof_H 	H 	0.2778	0.4608	0.601	0.321
Mof_H 	H 	0.2582	0.4317	0.6424	0.34
Mof_Zn	Zn	0.3012	0.1881	0.2225	1.129
Mof_Zn	Zn	0.3713	0.2071	0.2944	1.113
Mof_O 	O 	0.188	0.365	0.651	-0.749
Mof_O 	O 	0.305	0.231	0.265	-0.681
Mof_O 	O 	0.21	0.322	0.662	-0.769
Mof_O 	O 	0.358	0.248	0.313	-0.655
Mof_C 	C 	0.332	0.288	0.374	0.585
Mof_C 	C 	0.231	0.386	0.525	-0.6
Mof_H 	H 	0.2204	0.3979	0.5054	0.215
Mof_C 	C 	0.325	0.317	0.397	-0.517
Mof_H 	H 	0.3307	0.3212	0.4272	0.192
Mof_C 	C 	0.277	0.361	0.542	-0.666
Mof_H 	H 	0.2976	0.3553	0.5328	0.239
Mof_C 	C 	0.262	0.352	0.585	0.705
Mof_C 	C 	0.306	0.302	0.305	0.635
Mof_C 	C 	0.215	0.377	0.568	0.671
Mof_C 	C 	0.299	0.331	0.329	-0.52
Mof_H 	H 	0.2875	0.3454	0.3147	0.181
Mof_C 	C 	0.315	0.505	0.401	-3.803
Mof_H 	H 	0.3191	0.5063	0.4314	1.307
Mof_C 	C 	0.311	0.509	0.313	2.805
Mof_C 	C 	0.303	0.476	0.334	-3.389
Mof_H 	H 	0.2953	0.4523	0.316	1.092
Mof_C 	C 	0.317	0.536	0.38	2.674
Mof_O 	O 	0.362	0.606	0.306	-0.501
Mof_O 	O 	0.288	0.578	0.309	-0.545
Mof_O 	O 	0.25	0.156	0.225	-0.56
Mof_O 	O 	0.43	0.236	0.277	-0.367
Mof_C 	C 	0.511	0.283	0.271	0.357
Mof_C 	C 	0.496	0.302	0.305	-0.745
Mof_H 	H 	0.4782	0.2818	0.3263	0.24
Mof_H 	H 	0.5194	0.3245	0.3204	0.216
Mof_H 	H 	0.4807	0.3136	0.2903	0.23
Mof_C 	C 	0.111	0.08	0.223	-0.291
Mof_H 	H 	0.0968	0.0897	0.2058	0.106
Mof_C 	C 	0.555	0.304	0.271	-0.314
Mof_H 	H 	0.5699	0.3293	0.2867	0.114
Mof_C 	C 	0.155	0.102	0.223	0.382
Mof_C 	C 	0.28	0.332	0.61	-0.973
Mof_H 	H 	0.3117	0.3515	0.613	0.235
Mof_H 	H 	0.2707	0.3255	0.6405	0.322
Mof_H 	H 	0.2777	0.3074	0.5963	0.278
Mof_C 	C 	0.295	0.3	0.256	-1.358
Mof_H 	H 	0.2666	0.2887	0.2522	0.441
Mof_H 	H 	0.3132	0.3197	0.2398	0.512
Mof_H 	H 	0.2978	0.2721	0.2459	0.31
Mof_C 	C 	0.3	0.5	0.26	-3.028
Mof_H 	H 	0.2759	0.4753	0.255	1.007
Mof_H 	H 	0.3104	0.5207	0.2424	1.233
Mof_H 	H 	0.3226	0.4865	0.2516	0.443
Mof_C 	C 	0.182	0.39	0.57	-1.202
Mof_H 	H 	0.1554	0.3654	0.5748	0.371
Mof_H 	H 	0.1882	0.4086	0.5948	0.374
Mof_H 	H 	0.1821	0.4031	0.543	0.371
Mof_C 	C 	0.351	0.266	0.398	-1.116
Mof_H 	H 	0.3323	0.2495	0.4219	0.31
Mof_H 	H 	0.3538	0.2474	0.3777	0.389
Mof_H 	H 	0.3772	0.2854	0.4101	0.346
Mof_C 	C 	0.16	0.138	0.189	-1.165
Mof_H 	H 	0.1863	0.1407	0.1691	0.257
Mof_H 	H 	0.1402	0.1313	0.1726	0.489
Mof_H 	H 	0.1742	0.1636	0.205	0.37
Mof_C 	C 	0.39	0.55	0.299	0.645
Mof_H 	H 	0.3832	0.5469	0.2683	-0.189
Mof_H 	H 	0.4068	0.579	0.3065	-0.136
Mof_H 	H 	0.4052	0.536	0.3062	-0.17
Mof_C 	C 	0.184	0.282	0.572	-0.96
Mof_H 	H 	0.1649	0.2789	0.596	0.316
Mof_H 	H 	0.1682	0.2707	0.5454	0.282
Mof_H 	H 	0.1972	0.2662	0.5801	0.285
Mof_C 	C 	0.385	0.341	0.289	-1.099
Mof_H 	H 	0.3907	0.3197	0.2803	0.392
Mof_H 	H 	0.3778	0.3515	0.2631	0.314
Mof_H 	H 	0.4091	0.3636	0.3028	0.328
Mof_Zn	Zn	0.8585	0.6341	0.2388	1.096
Mof_Zn	Zn	0.8607	0.7037	0.3018	1.138
Mof_Zn	Zn	0.2807	0.6584	0.2198	1.137
Mof_O 	O 	0.906	0.646	0.275	-0.635
Mof_O 	O 	0.129	0.761	0.677	-0.719
Mof_O 	O 	0.249	0.658	0.272	-0.64
Mof_O 	O 	0.905	0.693	0.321	-0.73
Mof_C 	C 	0.959	0.678	0.329	-1.12
Mof_C 	C 	0.975	0.651	0.322	0.576
Mof_C 	C 	0.0103	0.658	0.345	-0.545
Mof_H 	H 	0.0209	0.6402	0.3399	0.202
Mof_C 	C 	0.03	0.691	0.374	0.818
Mof_C 	C 	0.013	0.717	0.381	-0.515
Mof_H 	H 	0.0263	0.739	0.4015	0.182
Mof_C 	C 	0.9776	0.71	0.359	0.613
Mof_C 	C 	0.256	0.674	0.312	1.195
Mof_O 	O 	0.142	0.825	0.649	-0.573
Mof_C 	C 	0.068	0.699	0.399	-0.659
Mof_C 	C 	0.097	0.692	0.3782	0.637
Mof_H 	H 	0.0939	0.6827	0.3491	-0.244
Mof_C 	C 	0.133	0.7	0.401	-0.874
Mof_C 	C 	0.14	0.715	0.445	0.635
Mof_H 	H 	0.1632	0.7198	0.4605	-0.244
Mof_C 	C 	0.11	0.722	0.4653	-0.662
Mof_C 	C 	0.074	0.714	0.442	0.536
Mof_H 	H 	0.0543	0.7186	0.4558	-0.19
Mof_C 	C 	0.129	0.77	0.598	-1.197
Mof_C 	C 	0.141	0.741	0.587	0.566
Mof_C 	C 	0.134	0.725	0.544	-0.518
Mof_H 	H 	0.1418	0.7051	0.5366	0.177
Mof_C 	C 	0.116	0.738	0.512	0.919
Mof_C 	C 	0.106	0.768	0.523	-0.531
Mof_H 	H 	0.0933	0.7766	0.5016	0.186
Mof_C 	C 	0.111	0.783	0.566	0.58
Mof_C 	C 	0.779	0.557	0.25	0.315
Mof_C 	C 	0.921	0.673	0.303	1.371
Mof_C 	C 	0.137	0.788	0.645	1.494
Mof_C 	C 	0.165	0.694	0.378	1.421
Mof_C 	C 	0.153	0.66	0.35	1.78
Mof_H 	H 	0.1247	0.6416	0.3442	-0.6
Mof_C 	C 	0.182	0.653	0.329	-1.358
Mof_C 	C 	0.225	0.681	0.337	-1.159
Mof_C 	C 	0.236	0.714	0.366	-1.88
Mof_C 	C 	0.207	0.721	0.386	2.307
Mof_H 	H 	0.2149	0.7434	0.4051	-0.792
Mof_O 	O 	0.288	0.673	0.331	-0.675
Mof_C 	C 	0.886	0.773	0.25	0.299
Mof_C 	C 	0.282	0.753	0.383	0.908
Mof_H 	H 	0.2919	0.744	0.4076	-0.284
Mof_H 	H 	0.3022	0.7611	0.3588	-0.215
Mof_H 	H 	0.2793	0.7763	0.3912	-0.259
Mof_O 	O 	0.889	0.761	0.288	-0.506
Mof_O 	O 	0.817	0.575	0.25	-0.471
Mof_C 	C 	0.948	0.845	0.276	0.327
Mof_C 	C 	0.749	0.445	0.229	-0.224
Mof_H 	H 	0.7606	0.4311	0.2141	0.088
Mof_C 	C 	0.97	0.889	0.276	-0.307
Mof_H 	H 	0.9941	0.9036	0.2924	0.116
Mof_C 	C 	0.971	0.83	0.307	-0.83
Mof_H 	H 	0.9974	0.8511	0.3129	0.272
Mof_H 	H 	0.9544	0.8194	0.3341	0.246
Mof_H 	H 	0.9708	0.8065	0.2924	0.259
Mof_C 	C 	0.771	0.488	0.229	0.26
Mof_C 	C 	0.808	0.5	0.203	-0.572
Mof_H 	H 	0.8334	0.5246	0.2187	0.148
Mof_H 	H 	0.8158	0.4795	0.1998	0.175
Mof_H 	H 	0.808	0.5117	0.1741	0.163
Mof_C 	C 	0.967	0.742	0.375	-1.139
Mof_H 	H 	0.9584	0.7362	0.4056	0.332
Mof_H 	H 	0.9913	0.7694	0.3732	0.33
Mof_H 	H 	0.9452	0.741	0.3574	0.388
Mof_C 	C 	0.162	0.724	0.617	-1.061
Mof_H 	H 	0.1413	0.6964	0.6273	0.311
Mof_H 	H 	0.183	0.7222	0.601	0.321
Mof_H 	H 	0.1735	0.7418	0.6424	0.34
Mof_Zn	Zn	0.8869	0.6988	0.2225	1.129
Mof_Zn	Zn	0.8358	0.6287	0.2944	1.113
Mof_O 	O 	0.177	0.812	0.651	-0.749
Mof_O 	O 	0.926	0.695	0.265	-0.681
Mof_O 	O 	0.112	0.79	0.662	-0.769
Mof_O 	O 	0.89	0.642	0.313	-0.655
Mof_C 	C 	0.956	0.668	0.374	0.585
Mof_C 	C 	0.155	0.769	0.525	-0.6
Mof_H 	H 	0.1775	0.7796	0.5054	0.215
Mof_C 	C 	0.992	0.675	0.397	-0.517
Mof_H 	H 	0.9905	0.6693	0.4272	0.192
Mof_C 	C 	0.084	0.723	0.542	-0.666
Mof_H 	H 	0.0577	0.7024	0.5328	0.239
Mof_C 	C 	0.09	0.738	0.585	0.705
Mof_C 	C 	0.996	0.694	0.305	0.634
Mof_C 	C 	0.162	0.785	0.568	0.671
Mof_C 	C 	0.032	0.701	0.329	-0.52
Mof_H 	H 	0.0579	0.7125	0.3147	0.18
Mof_C 	C 	0.19	0.685	0.401	-3.802
Mof_H 	H 	0.1872	0.6809	0.4314	1.307
Mof_C 	C 	0.198	0.689	0.313	2.804
Mof_C 	C 	0.173	0.697	0.334	-3.388
Mof_H 	H 	0.157	0.7047	0.316	1.091
Mof_C 	C 	0.219	0.683	0.38	2.673
Mof_O 	O 	0.244	0.638	0.306	-0.501
Mof_O 	O 	0.29	0.712	0.309	-0.545
Mof_O 	O 	0.906	0.75	0.225	-0.56
Mof_O 	O 	0.806	0.57	0.277	-0.367
Mof_C 	C 	0.772	0.489	0.271	0.357
Mof_C 	C 	0.806	0.504	0.305	-0.745
Mof_H 	H 	0.8036	0.5218	0.3263	0.24
Mof_H 	H 	0.8051	0.4806	0.3204	0.216
Mof_H 	H 	0.8329	0.5193	0.2903	0.23
Mof_C 	C 	0.969	0.889	0.223	-0.291
Mof_H 	H 	0.9929	0.9032	0.2058	0.106
Mof_C 	C 	0.749	0.445	0.271	-0.314
Mof_H 	H 	0.7594	0.4301	0.2867	0.114
Mof_C 	C 	0.947	0.845	0.223	0.382
Mof_C 	C 	0.052	0.72	0.61	-0.973
Mof_H 	H 	0.0398	0.6883	0.613	0.235
Mof_H 	H 	0.0548	0.7293	0.6405	0.322
Mof_H 	H 	0.0297	0.7223	0.5963	0.278
Mof_C 	C 	0.005	0.705	0.256	-1.356
Mof_H 	H 	0.0221	0.7334	0.2522	0.441
Mof_H 	H 	0.0065	0.6868	0.2398	0.511
Mof_H 	H 	0.9743	0.7022	0.2459	0.309
Mof_C 	C 	0.2	0.7	0.26	-3.027
Mof_H 	H 	0.1994	0.7241	0.255	1.007
Mof_H 	H 	0.2103	0.6896	0.2424	1.233
Mof_H 	H 	0.1639	0.6774	0.2516	0.443
Mof_C 	C 	0.208	0.818	0.57	-1.202
Mof_H 	H 	0.21	0.8446	0.5748	0.371
Mof_H 	H 	0.2204	0.8118	0.5948	0.374
Mof_H 	H 	0.221	0.8179	0.543	0.371
Mof_C 	C 	0.915	0.649	0.398	-1.116
Mof_H 	H 	0.9172	0.6677	0.4219	0.31
Mof_H 	H 	0.8936	0.6462	0.3777	0.389
Mof_H 	H 	0.9082	0.6228	0.4101	0.346
Mof_C 	C 	0.978	0.84	0.189	-1.165
Mof_H 	H 	0.9544	0.8137	0.1691	0.257
Mof_H 	H 	0.9911	0.8598	0.1726	0.489
Mof_H 	H 	0.9894	0.8258	0.205	0.37
Mof_C 	C 	0.16	0.61	0.299	0.645
Mof_H 	H 	0.1637	0.6168	0.2683	-0.189
Mof_H 	H 	0.1722	0.5932	0.3065	-0.136
Mof_H 	H 	0.1308	0.5948	0.3062	-0.169
Mof_C 	C 	0.098	0.816	0.572	-0.96
Mof_H 	H 	0.114	0.8351	0.596	0.316
Mof_H 	H 	0.1025	0.8318	0.5454	0.282
Mof_H 	H 	0.069	0.8028	0.5801	0.285
Mof_C 	C 	0.956	0.615	0.289	-1.098
Mof_H 	H 	0.929	0.6093	0.2803	0.392
Mof_H 	H 	0.9737	0.6222	0.2631	0.314
Mof_H 	H 	0.9545	0.5909	0.3028	0.328
Mof_Zn	Zn	0.7756	0.1415	0.2388	1.096
Mof_Zn	Zn	0.843	0.1393	0.3018	1.138
Mof_Zn	Zn	0.3777	0.7193	0.2198	1.137
Mof_O 	O 	0.74	0.094	0.275	-0.635
Mof_O 	O 	0.632	0.871	0.677	-0.719
Mof_O 	O 	0.409	0.751	0.272	-0.64
Mof_O 	O 	0.788	0.095	0.321	-0.73
Mof_C 	C 	0.719	0.041	0.329	-1.12
Mof_C 	C 	0.676	0.025	0.322	0.576
Mof_C 	C 	0.6477	0.9897	0.345	-0.545
Mof_H 	H 	0.6193	0.9791	0.3399	0.202
Mof_C 	C 	0.661	0.97	0.374	0.818
Mof_C 	C 	0.704	0.987	0.381	-0.515
Mof_H 	H 	0.7127	0.9737	0.4015	0.182
Mof_C 	C 	0.7324	0.0224	0.359	0.613
Mof_C 	C 	0.418	0.744	0.312	1.195
Mof_O 	O 	0.683	0.858	0.649	-0.573
Mof_C 	C 	0.631	0.932	0.399	-0.659
Mof_C 	C 	0.595	0.903	0.3782	0.637
Mof_H 	H 	0.5888	0.9061	0.3491	-0.244
Mof_C 	C 	0.567	0.867	0.401	-0.874
Mof_C 	C 	0.575	0.86	0.445	0.635
Mof_H 	H 	0.5566	0.8368	0.4605	-0.244
Mof_C 	C 	0.612	0.89	0.4653	-0.662
Mof_C 	C 	0.64	0.926	0.442	0.536
Mof_H 	H 	0.6643	0.9457	0.4558	-0.19
Mof_C 	C 	0.641	0.871	0.598	-1.197
Mof_C 	C 	0.6	0.859	0.587	0.566
Mof_C 	C 	0.591	0.866	0.544	-0.518
Mof_H 	H 	0.5633	0.8582	0.5366	0.177
Mof_C 	C 	0.622	0.884	0.512	0.919
Mof_C 	C 	0.662	0.894	0.523	-0.531
Mof_H 	H 	0.6833	0.9067	0.5016	0.186
Mof_C 	C 	0.672	0.889	0.566	0.58
Mof_C 	C 	0.778	0.221	0.25	0.315
Mof_C 	C 	0.752	0.079	0.303	1.371
Mof_C 	C 	0.651	0.863	0.645	1.494
Mof_C 	C 	0.529	0.835	0.378	1.421
Mof_C 	C 	0.507	0.847	0.35	1.78
Mof_H 	H 	0.5169	0.8753	0.3442	-0.6
Mof_C 	C 	0.471	0.818	0.329	-1.359
Mof_C 	C 	0.456	0.775	0.337	-1.159
Mof_C 	C 	0.478	0.764	0.366	-1.88
Mof_C 	C 	0.514	0.793	0.386	2.307
Mof_H 	H 	0.5285	0.7851	0.4051	-0.793
Mof_O 	O 	0.385	0.712	0.331	-0.674
Mof_C 	C 	0.887	0.114	0.25	0.299
Mof_C 	C 	0.471	0.718	0.383	0.908
Mof_H 	H 	0.4521	0.7081	0.4076	-0.284
Mof_H 	H 	0.4589	0.6978	0.3588	-0.215
Mof_H 	H 	0.497	0.7207	0.3912	-0.259
Mof_O 	O 	0.872	0.111	0.288	-0.506
Mof_O 	O 	0.758	0.183	0.25	-0.471
Mof_C 	C 	0.897	0.052	0.276	0.327
Mof_C 	C 	0.696	0.251	0.229	-0.224
Mof_H 	H 	0.6705	0.2394	0.2141	0.088
Mof_C 	C 	0.919	0.03	0.276	-0.307
Mof_H 	H 	0.9095	0.0059	0.2924	0.116
Mof_C 	C 	0.859	0.029	0.307	-0.83
Mof_H 	H 	0.8537	0.0026	0.3129	0.272
Mof_H 	H 	0.865	0.0456	0.3341	0.246
Mof_H 	H 	0.8357	0.0292	0.2924	0.259
Mof_C 	C 	0.717	0.229	0.229	0.26
Mof_C 	C 	0.692	0.192	0.203	-0.572
Mof_H 	H 	0.6912	0.1666	0.2187	0.148
Mof_H 	H 	0.6637	0.1842	0.1998	0.175
Mof_H 	H 	0.7037	0.192	0.1741	0.163
Mof_C 	C 	0.775	0.033	0.375	-1.139
Mof_H 	H 	0.7778	0.0416	0.4056	0.332
Mof_H 	H 	0.7781	0.0087	0.3732	0.33
Mof_H 	H 	0.7958	0.0548	0.3574	0.388
Mof_C 	C 	0.562	0.838	0.617	-1.061
Mof_H 	H 	0.5551	0.8587	0.6273	0.311
Mof_H 	H 	0.5392	0.817	0.601	0.321
Mof_H 	H 	0.5683	0.8265	0.6424	0.34
Mof_Zn	Zn	0.8119	0.1131	0.2225	1.129
Mof_Zn	Zn	0.7929	0.1642	0.2944	1.113
Mof_O 	O 	0.635	0.823	0.651	-0.749
Mof_O 	O 	0.769	0.074	0.265	-0.681
Mof_O 	O 	0.678	0.888	0.662	-0.769
Mof_O 	O 	0.752	0.11	0.313	-0.655
Mof_C 	C 	0.712	0.044	0.374	0.585
Mof_C 	C 	0.614	0.845	0.525	-0.6
Mof_H 	H 	0.6021	0.8225	0.5054	0.215
Mof_C 	C 	0.683	0.008	0.397	-0.517
Mof_H 	H 	0.6788	0.0095	0.4272	0.192
Mof_C 	C 	0.639	0.916	0.542	-0.666
Mof_H 	H 	0.6447	0.9423	0.5328	0.239
Mof_C 	C 	0.648	0.91	0.585	0.705
Mof_C 	C 	0.698	0.004	0.305	0.634
Mof_C 	C 	0.623	0.838	0.568	0.671
Mof_C 	C 	0.669	0.968	0.329	-0.52
Mof_H 	H 	0.6546	0.9421	0.3147	0.18
Mof_C 	C 	0.495	0.81	0.401	-3.803
Mof_H 	H 	0.4937	0.8128	0.4314	1.307
Mof_C 	C 	0.491	0.802	0.313	2.804
Mof_C 	C 	0.524	0.827	0.334	-3.389
Mof_H 	H 	0.5477	0.843	0.316	1.092
Mof_C 	C 	0.464	0.781	0.38	2.674
Mof_O 	O 	0.394	0.756	0.306	-0.501
Mof_O 	O 	0.422	0.71	0.309	-0.545
Mof_O 	O 	0.844	0.094	0.225	-0.56
Mof_O 	O 	0.764	0.194	0.277	-0.367
Mof_C 	C 	0.717	0.228	0.271	0.357
Mof_C 	C 	0.698	0.194	0.305	-0.745
Mof_H 	H 	0.7182	0.1964	0.3263	0.24
Mof_H 	H 	0.6755	0.1949	0.3204	0.216
Mof_H 	H 	0.6864	0.1671	0.2903	0.23
Mof_C 	C 	0.92	0.031	0.223	-0.291
Mof_H 	H 	0.9103	0.0071	0.2058	0.106
Mof_C 	C 	0.696	0.251	0.271	-0.314
Mof_H 	H 	0.6707	0.2406	0.2867	0.114
Mof_C 	C 	0.898	0.053	0.223	0.382
Mof_C 	C 	0.668	0.948	0.61	-0.973
Mof_H 	H 	0.6485	0.9602	0.613	0.235
Mof_H 	H 	0.6745	0.9452	0.6405	0.322
Mof_H 	H 	0.6926	0.9703	0.5963	0.278
Mof_C 	C 	0.7	0.995	0.256	-1.356
Mof_H 	H 	0.7113	0.9779	0.2522	0.441
Mof_H 	H 	0.6803	0.9935	0.2398	0.511
Mof_H 	H 	0.7279	0.0257	0.2459	0.309
Mof_C 	C 	0.5	0.8	0.26	-3.027
Mof_H 	H 	0.5247	0.8006	0.255	1.007
Mof_H 	H 	0.4793	0.7897	0.2424	1.233
Mof_H 	H 	0.5135	0.8361	0.2516	0.443
Mof_C 	C 	0.61	0.792	0.57	-1.202
Mof_H 	H 	0.6346	0.79	0.5748	0.371
Mof_H 	H 	0.5914	0.7796	0.5948	0.374
Mof_H 	H 	0.5969	0.779	0.543	0.371
Mof_C 	C 	0.734	0.085	0.398	-1.116
Mof_H 	H 	0.7505	0.0828	0.4219	0.31
Mof_H 	H 	0.7526	0.1064	0.3777	0.389
Mof_H 	H 	0.7146	0.0918	0.4101	0.346
Mof_C 	C 	0.862	0.022	0.189	-1.165
Mof_H 	H 	0.8593	0.0456	0.1691	0.256
Mof_H 	H 	0.8687	0.0089	0.1726	0.489
Mof_H 	H 	0.8364	0.0106	0.205	0.369
Mof_C 	C 	0.45	0.84	0.299	0.645
Mof_H 	H 	0.4531	0.8363	0.2683	-0.189
Mof_H 	H 	0.421	0.8278	0.3065	-0.136
Mof_H 	H 	0.464	0.8692	0.3062	-0.169
Mof_C 	C 	0.718	0.902	0.572	-0.96
Mof_H 	H 	0.7211	0.886	0.596	0.316
Mof_H 	H 	0.7293	0.8975	0.5454	0.282
Mof_H 	H 	0.7338	0.931	0.5801	0.285
Mof_C 	C 	0.659	0.044	0.289	-1.098
Mof_H 	H 	0.6803	0.071	0.2803	0.392
Mof_H 	H 	0.6485	0.0263	0.2631	0.314
Mof_H 	H 	0.6364	0.0455	0.3028	0.328
Mof_Zn	Zn	0.66667	0.33333	0.8067	1.083
Mof_Zn	Zn	0.66667	0.33333	0.6933	1.083
Mof_Zn	Zn	0.33333	0.66667	0.1933	1.083
Mof_Zn	Zn	0.33333	0.66667	0.3067	1.083
Mof_O 	O 	0.1665	0.333	0.75	-1.541
Mof_C 	C 	0.245	0.49	0.75	-0.557
Mof_C 	C 	0.312	0.624	0.75	-0.204
Mof_C 	C 	0.288	0.576	0.75	0.384
Mof_C 	C 	0.0445	0.089	0.75	0.39
Mof_C 	C 	0.022	0.044	0.75	-0.172
Mof_C 	C 	0.0885	0.177	0.75	-0.554
Mof_O 	O 	0.667	0.8335	0.75	-1.541
Mof_C 	C 	0.51	0.755	0.75	-0.557
Mof_C 	C 	0.376	0.688	0.75	-0.204
Mof_C 	C 	0.424	0.712	0.75	0.384
Mof_C 	C 	0.911	0.9555	0.75	0.39
Mof_C 	C 	0.956	0.978	0.75	-0.172
Mof_C 	C 	0.823	0.9115	0.75	-0.554
Mof_O 	O 	0.1665	0.8335	0.75	-1.541
Mof_C 	C 	0.245	0.755	0.75	-0.557
Mof_C 	C 	0.312	0.688	0.75	-0.204
Mof_C 	C 	0.288	0.712	0.75	0.384
Mof_C 	C 	0.0445	0.9555	0.75	0.39
Mof_C 	C 	0.022	0.978	0.75	-0.172
Mof_C 	C 	0.0885	0.9115	0.75	-0.554
Mof_O 	O 	0.8335	0.667	0.25	-1.541
Mof_C 	C 	0.755	0.51	0.25	-0.557
Mof_C 	C 	0.688	0.376	0.25	-0.204
Mof_C 	C 	0.712	0.424	0.25	0.384
Mof_C 	C 	0.9555	0.911	0.25	0.39
Mof_C 	C 	0.978	0.956	0.25	-0.172
Mof_C 	C 	0.9115	0.823	0.25	-0.554
Mof_O 	O 	0.333	0.1665	0.25	-1.541
Mof_C 	C 	0.49	0.245	0.25	-0.557
Mof_C 	C 	0.624	0.312	0.25	-0.204
Mof_C 	C 	0.576	0.288	0.25	0.384
Mof_C 	C 	0.089	0.0445	0.25	0.39
Mof_C 	C 	0.044	0.022	0.25	-0.172
Mof_C 	C 	0.177	0.0885	0.25	-0.554
Mof_O 	O 	0.8335	0.1665	0.25	-1.541
Mof_C 	C 	0.755	0.245	0.25	-0.557
Mof_C 	C 	0.688	0.312	0.25	-0.204
Mof_C 	C 	0.712	0.288	0.25	0.384
Mof_C 	C 	0.9555	0.0445	0.25	0.39
Mof_C 	C 	0.978	0.022	0.25	-0.172
Mof_C 	C 	0.9115	0.0885	0.25	-0.554
Mof_O 	O 	0.66667	0.33333	0.75	-1.555
Mof_O 	O 	0.33333	0.66667	0.25	-1.555
Mof_C 	C 	0.3552	0.6448	0.75	0.106
Mof_H 	H 	0.3696	0.6304	0.75	-0.033
Mof_C 	C 	0.3552	0.7104	0.75	0.106
Mof_H 	H 	0.3696	0.7392	0.75	-0.033
Mof_C 	C 	0.2896	0.6448	0.75	0.106
Mof_H 	H 	0.2608	0.6304	0.75	-0.033
Mof_C 	C 	0.6448	0.3552	0.25	0.106
Mof_H 	H 	0.6304	0.3696	0.25	-0.033
Mof_C 	C 	0.6448	0.2896	0.25	0.106
Mof_H 	H 	0.6304	0.2608	0.25	-0.033
Mof_C 	C 	0.7104	0.3552	0.25	0.106
Mof_H 	H 	0.7392	0.3696	0.25	-0.033
Mof_C 	C 	0.048	0.024	0.75	0.046
Mof_H 	H 	0.0774	0.0387	0.75	-0.013
Mof_C 	C 	0.976	0.024	0.75	0.046
Mof_H 	H 	0.9613	0.0387	0.75	-0.013
Mof_C 	C 	0.976	0.952	0.75	0.046
Mof_H 	H 	0.9613	0.9226	0.75	-0.013
Mof_C 	C 	0.952	0.976	0.25	0.046
Mof_H 	H 	0.9226	0.9613	0.25	-0.013
Mof_C 	C 	0.024	0.976	0.25	0.046
Mof_H 	H 	0.0387	0.9613	0.25	-0.013
Mof_C 	C 	0.024	0.048	0.25	0.046
Mof_H 	H 	0.0387	0.0774	0.25	-0.013
_end
