data_functionalizedCrystal
_audit_creation_method	'EQeq! by Chris Wilmer'
_symmetry_space_group_name_H-M	'P1'
_symmetry_Int_Tables_number	1
_symmetry_cell_setting	triclinic
loop_
_symmetry_equiv_pos_as_xyz
  x,y,z
_cell_length_a	14.0241
_cell_length_b	14.0241
_cell_length_c	19.9373
_cell_angle_alpha	90
_cell_angle_beta	90
_cell_angle_gamma	90
loop_
_atom_site_label
_atom_site_type_symbol
_atom_site_fract_x
_atom_site_fract_y
_atom_site_fract_z
_atom_site_charge
Mof_N 	N 	0.1737	0.8941	0.9319	-0.144
Mof_C 	C 	0.2221	0.8856	0.8762	-0.168
Mof_H 	H 	0.2688	0.93	0.8616	0.117
Mof_C 	C 	0.2824	0.8338	0.812	0.211
Mof_H 	H 	0.3232	0.8741	0.8374	-0.049
Mof_O 	O 	0.2023	0.9099	0.9265	-0.218
Mof_N 	N 	0.6737	0.3941	0.4319	-0.193
Mof_C 	C 	0.7221	0.3856	0.3762	-0.181
Mof_H 	H 	0.7688	0.43	0.3616	0.105
Mof_C 	C 	0.7824	0.3338	0.312	0.233
Mof_H 	H 	0.8232	0.3741	0.3374	-0.065
Mof_O 	O 	0.7023	0.4099	0.4265	-0.227
Mof_N 	N 	0.8263	0.1059	0.9319	-0.185
Mof_C 	C 	0.7779	0.1144	0.8762	-0.181
Mof_H 	H 	0.7312	0.07	0.8616	0.1
Mof_C 	C 	0.7176	0.1662	0.812	0.214
Mof_H 	H 	0.6768	0.1259	0.8374	-0.057
Mof_O 	O 	0.7977	0.0901	0.9265	-0.185
Mof_N 	N 	0.3263	0.6059	0.4319	-0.2
Mof_C 	C 	0.2779	0.6144	0.3762	-0.184
Mof_H 	H 	0.2312	0.57	0.3616	0.103
Mof_C 	C 	0.2176	0.6662	0.312	0.237
Mof_H 	H 	0.1768	0.6259	0.3374	-0.074
Mof_O 	O 	0.2977	0.5901	0.4265	-0.221
Mof_N 	N 	0.1059	0.1737	0.9319	-0.172
Mof_C 	C 	0.1144	0.2221	0.8762	-0.183
Mof_H 	H 	0.07	0.2688	0.8616	0.101
Mof_C 	C 	0.1662	0.2824	0.812	0.219
Mof_H 	H 	0.1259	0.3232	0.8374	-0.06
Mof_O 	O 	0.0901	0.2023	0.9265	-0.207
Mof_N 	N 	0.6059	0.6737	0.4319	-0.191
Mof_C 	C 	0.6144	0.7221	0.3762	-0.178
Mof_H 	H 	0.57	0.7688	0.3616	0.105
Mof_C 	C 	0.6662	0.7824	0.312	0.236
Mof_H 	H 	0.6259	0.8232	0.3374	-0.063
Mof_O 	O 	0.5901	0.7023	0.4265	-0.226
Mof_N 	N 	0.8941	0.8263	0.9319	-0.156
Mof_C 	C 	0.8856	0.7779	0.8762	-0.164
Mof_H 	H 	0.93	0.7312	0.8616	0.118
Mof_C 	C 	0.8338	0.7176	0.812	0.206
Mof_H 	H 	0.8741	0.6768	0.8374	-0.046
Mof_O 	O 	0.9099	0.7977	0.9265	-0.194
Mof_N 	N 	0.3941	0.3263	0.4319	-0.2
Mof_C 	C 	0.3856	0.2779	0.3762	-0.186
Mof_H 	H 	0.43	0.2312	0.3616	0.104
Mof_C 	C 	0.3338	0.2176	0.312	0.235
Mof_H 	H 	0.3741	0.1768	0.3374	-0.076
Mof_O 	O 	0.4099	0.2977	0.4265	-0.222
Mof_N 	N 	0.8263	0.8941	0.0681	-0.201
Mof_C 	C 	0.7779	0.8856	0.1238	-0.186
Mof_H 	H 	0.7312	0.93	0.1384	0.116
Mof_C 	C 	0.7176	0.8338	0.188	0.227
Mof_H 	H 	0.6768	0.8741	0.1626	-0.069
Mof_O 	O 	0.7977	0.9099	0.0735	-0.21
Mof_N 	N 	0.3263	0.3941	0.5681	-0.201
Mof_C 	C 	0.2779	0.3856	0.6238	-0.189
Mof_H 	H 	0.2312	0.43	0.6384	0.107
Mof_C 	C 	0.2176	0.3338	0.688	0.216
Mof_H 	H 	0.1768	0.3741	0.6626	-0.068
Mof_O 	O 	0.2977	0.4099	0.5735	-0.219
Mof_N 	N 	0.1737	0.1059	0.0681	-0.219
Mof_C 	C 	0.2221	0.1144	0.1238	-0.205
Mof_H 	H 	0.2688	0.07	0.1384	0.098
Mof_C 	C 	0.2824	0.1662	0.188	0.242
Mof_H 	H 	0.3232	0.1259	0.1626	-0.084
Mof_O 	O 	0.2023	0.0901	0.0735	-0.225
Mof_N 	N 	0.6737	0.6059	0.5681	-0.192
Mof_C 	C 	0.7221	0.6144	0.6238	-0.18
Mof_H 	H 	0.7688	0.57	0.6384	0.108
Mof_C 	C 	0.7824	0.6662	0.688	0.218
Mof_H 	H 	0.8232	0.6259	0.6626	-0.056
Mof_O 	O 	0.7023	0.5901	0.5735	-0.222
Mof_N 	N 	0.8941	0.1737	0.0681	-0.188
Mof_C 	C 	0.8856	0.2221	0.1238	-0.189
Mof_H 	H 	0.93	0.2688	0.1384	0.116
Mof_C 	C 	0.8338	0.2824	0.188	0.234
Mof_H 	H 	0.8741	0.3232	0.1626	-0.072
Mof_O 	O 	0.9099	0.2023	0.0735	-0.235
Mof_N 	N 	0.3941	0.6737	0.5681	-0.192
Mof_C 	C 	0.3856	0.7221	0.6238	-0.183
Mof_H 	H 	0.43	0.7688	0.6384	0.109
Mof_C 	C 	0.3338	0.7824	0.688	0.216
Mof_H 	H 	0.3741	0.8232	0.6626	-0.058
Mof_O 	O 	0.4099	0.7023	0.5735	-0.224
Mof_N 	N 	0.1059	0.8263	0.0681	-0.233
Mof_C 	C 	0.1144	0.7779	0.1238	-0.203
Mof_H 	H 	0.07	0.7312	0.1384	0.097
Mof_C 	C 	0.1662	0.7176	0.188	0.236
Mof_H 	H 	0.1259	0.6768	0.1626	-0.082
Mof_O 	O 	0.0901	0.7977	0.0735	-0.201
Mof_N 	N 	0.6059	0.3263	0.5681	-0.2
Mof_C 	C 	0.6144	0.2779	0.6238	-0.187
Mof_H 	H 	0.57	0.2312	0.6384	0.106
Mof_C 	C 	0.6662	0.2176	0.688	0.218
Mof_H 	H 	0.6259	0.1768	0.6626	-0.067
Mof_O 	O 	0.5901	0.2977	0.5735	-0.217
Mof_N 	N 	0.8263	0.1059	0.0681	-0.233
Mof_C 	C 	0.7779	0.1144	0.1238	-0.203
Mof_H 	H 	0.7312	0.07	0.1384	0.097
Mof_C 	C 	0.7176	0.1662	0.188	0.236
Mof_H 	H 	0.6768	0.1259	0.1626	-0.082
Mof_O 	O 	0.7977	0.0901	0.0735	-0.201
Mof_N 	N 	0.3263	0.6059	0.5681	-0.2
Mof_C 	C 	0.2779	0.6144	0.6238	-0.187
Mof_H 	H 	0.2312	0.57	0.6384	0.106
Mof_C 	C 	0.2176	0.6662	0.688	0.218
Mof_H 	H 	0.1768	0.6259	0.6626	-0.067
Mof_O 	O 	0.2977	0.5901	0.5735	-0.217
Mof_N 	N 	0.1737	0.8941	0.0681	-0.188
Mof_C 	C 	0.2221	0.8856	0.1238	-0.189
Mof_H 	H 	0.2688	0.93	0.1384	0.116
Mof_C 	C 	0.2824	0.8338	0.188	0.234
Mof_H 	H 	0.3232	0.8741	0.1626	-0.072
Mof_O 	O 	0.2023	0.9099	0.0735	-0.235
Mof_N 	N 	0.6737	0.3941	0.5681	-0.192
Mof_C 	C 	0.7221	0.3856	0.6238	-0.183
Mof_H 	H 	0.7688	0.43	0.6384	0.109
Mof_C 	C 	0.7824	0.3338	0.688	0.216
Mof_H 	H 	0.8232	0.3741	0.6626	-0.058
Mof_O 	O 	0.7023	0.4099	0.5735	-0.224
Mof_N 	N 	0.8941	0.8263	0.0681	-0.201
Mof_C 	C 	0.8856	0.7779	0.1238	-0.186
Mof_H 	H 	0.93	0.7312	0.1384	0.116
Mof_C 	C 	0.8338	0.7176	0.188	0.227
Mof_H 	H 	0.8741	0.6768	0.1626	-0.069
Mof_O 	O 	0.9099	0.7977	0.0735	-0.21
Mof_N 	N 	0.3941	0.3263	0.5681	-0.201
Mof_C 	C 	0.3856	0.2779	0.6238	-0.189
Mof_H 	H 	0.43	0.2312	0.6384	0.107
Mof_C 	C 	0.3338	0.2176	0.688	0.216
Mof_H 	H 	0.3741	0.1768	0.6626	-0.068
Mof_O 	O 	0.4099	0.2977	0.5735	-0.219
Mof_N 	N 	0.1059	0.1737	0.0681	-0.219
Mof_C 	C 	0.1144	0.2221	0.1238	-0.205
Mof_H 	H 	0.07	0.2688	0.1384	0.098
Mof_C 	C 	0.1662	0.2824	0.188	0.242
Mof_H 	H 	0.1259	0.3232	0.1626	-0.084
Mof_O 	O 	0.0901	0.2023	0.0735	-0.225
Mof_N 	N 	0.6059	0.6737	0.5681	-0.192
Mof_C 	C 	0.6144	0.7221	0.6238	-0.18
Mof_H 	H 	0.57	0.7688	0.6384	0.108
Mof_C 	C 	0.6662	0.7824	0.688	0.218
Mof_H 	H 	0.6259	0.8232	0.6626	-0.056
Mof_O 	O 	0.5901	0.7023	0.5735	-0.222
Mof_N 	N 	0.1737	0.1059	0.9319	-0.172
Mof_C 	C 	0.2221	0.1144	0.8762	-0.183
Mof_H 	H 	0.2688	0.07	0.8616	0.101
Mof_C 	C 	0.2824	0.1662	0.812	0.219
Mof_H 	H 	0.3232	0.1259	0.8374	-0.06
Mof_O 	O 	0.2023	0.0901	0.9265	-0.207
Mof_N 	N 	0.6737	0.6059	0.4319	-0.191
Mof_C 	C 	0.7221	0.6144	0.3762	-0.178
Mof_H 	H 	0.7688	0.57	0.3616	0.105
Mof_C 	C 	0.7824	0.6662	0.312	0.236
Mof_H 	H 	0.8232	0.6259	0.3374	-0.063
Mof_O 	O 	0.7023	0.5901	0.4265	-0.226
Mof_N 	N 	0.8263	0.8941	0.9319	-0.156
Mof_C 	C 	0.7779	0.8856	0.8762	-0.164
Mof_H 	H 	0.7312	0.93	0.8616	0.118
Mof_C 	C 	0.7176	0.8338	0.812	0.206
Mof_H 	H 	0.6768	0.8741	0.8374	-0.046
Mof_O 	O 	0.7977	0.9099	0.9265	-0.194
Mof_N 	N 	0.3263	0.3941	0.4319	-0.2
Mof_C 	C 	0.2779	0.3856	0.3762	-0.186
Mof_H 	H 	0.2312	0.43	0.3616	0.104
Mof_C 	C 	0.2176	0.3338	0.312	0.235
Mof_H 	H 	0.1768	0.3741	0.3374	-0.076
Mof_O 	O 	0.2977	0.4099	0.4265	-0.222
Mof_N 	N 	0.1059	0.8263	0.9319	-0.185
Mof_C 	C 	0.1144	0.7779	0.8762	-0.181
Mof_H 	H 	0.07	0.7312	0.8616	0.1
Mof_C 	C 	0.1662	0.7176	0.812	0.214
Mof_H 	H 	0.1259	0.6768	0.8374	-0.057
Mof_O 	O 	0.0901	0.7977	0.9265	-0.185
Mof_N 	N 	0.6059	0.3263	0.4319	-0.2
Mof_C 	C 	0.6144	0.2779	0.3762	-0.184
Mof_H 	H 	0.57	0.2312	0.3616	0.103
Mof_C 	C 	0.6662	0.2176	0.312	0.237
Mof_H 	H 	0.6259	0.1768	0.3374	-0.074
Mof_O 	O 	0.5901	0.2977	0.4265	-0.221
Mof_N 	N 	0.8941	0.1737	0.9319	-0.143
Mof_C 	C 	0.8856	0.2221	0.8762	-0.167
Mof_H 	H 	0.93	0.2688	0.8616	0.118
Mof_C 	C 	0.8338	0.2824	0.812	0.212
Mof_H 	H 	0.8741	0.3232	0.8374	-0.048
Mof_O 	O 	0.9099	0.2023	0.9265	-0.217
Mof_N 	N 	0.3941	0.6737	0.4319	-0.192
Mof_C 	C 	0.3856	0.7221	0.3762	-0.18
Mof_H 	H 	0.43	0.7688	0.3616	0.106
Mof_C 	C 	0.3338	0.7824	0.312	0.234
Mof_H 	H 	0.3741	0.8232	0.3374	-0.065
Mof_O 	O 	0.4099	0.7023	0.4265	-0.227
Mof_Cu	Cu	0.18067	0	-0	0.881
Mof_Cu	Cu	0.68067	0.5	0.5	0.938
Mof_Cu	Cu	0.81933	0	-0	0.884
Mof_Cu	Cu	0.31933	0.5	0.5	0.935
Mof_Cu	Cu	-1.60944e-33	0.18067	-0	0.881
Mof_Cu	Cu	0.5	0.68067	0.5	0.938
Mof_Cu	Cu	-0	0.81933	-0	0.884
Mof_Cu	Cu	0.5	0.31933	0.5	0.935
Mof_Cl	Cl	-0	0	-0	-0.774
Mof_Cl	Cl	0.5	0.5	0.5	-0.649
Mof_C 	C 	0.197	0.803	0.8406	-0.336
Mof_C 	C 	0.2241	0.7759	0.7782	0.218
Mof_C 	C 	0.1637	0.8363	0.9032	0.711
Mof_C 	C 	0.697	0.303	0.3406	-0.375
Mof_C 	C 	0.7241	0.2759	0.2782	0.227
Mof_C 	C 	0.6637	0.3363	0.4032	0.751
Mof_C 	C 	0.803	0.197	0.8406	-0.336
Mof_C 	C 	0.7759	0.2241	0.7782	0.218
Mof_C 	C 	0.8363	0.1637	0.9032	0.711
Mof_C 	C 	0.303	0.697	0.3406	-0.375
Mof_C 	C 	0.2759	0.7241	0.2782	0.227
Mof_C 	C 	0.3363	0.6637	0.4032	0.751
Mof_C 	C 	0.197	0.197	0.8406	-0.344
Mof_C 	C 	0.2241	0.2241	0.7782	0.21
Mof_C 	C 	0.1637	0.1637	0.9032	0.725
Mof_C 	C 	0.697	0.697	0.3406	-0.37
Mof_C 	C 	0.7241	0.7241	0.2782	0.224
Mof_C 	C 	0.6637	0.6637	0.4032	0.746
Mof_C 	C 	0.803	0.803	0.8406	-0.327
Mof_C 	C 	0.7759	0.7759	0.7782	0.227
Mof_C 	C 	0.8363	0.8363	0.9032	0.695
Mof_C 	C 	0.303	0.303	0.3406	-0.379
Mof_C 	C 	0.2759	0.2759	0.2782	0.231
Mof_C 	C 	0.3363	0.3363	0.4032	0.757
Mof_C 	C 	0.803	0.803	0.1594	-0.366
Mof_C 	C 	0.7759	0.7759	0.2218	0.239
Mof_C 	C 	0.8363	0.8363	0.0968	0.748
Mof_C 	C 	0.303	0.303	0.6594	-0.358
Mof_C 	C 	0.2759	0.2759	0.7218	0.227
Mof_C 	C 	0.3363	0.3363	0.5968	0.752
Mof_C 	C 	0.197	0.197	0.1594	-0.386
Mof_C 	C 	0.2241	0.2241	0.2218	0.222
Mof_C 	C 	0.1637	0.1637	0.0968	0.782
Mof_C 	C 	0.697	0.697	0.6594	-0.35
Mof_C 	C 	0.7241	0.7241	0.7218	0.221
Mof_C 	C 	0.6637	0.6637	0.5968	0.741
Mof_C 	C 	0.803	0.197	0.1594	-0.376
Mof_C 	C 	0.7759	0.2241	0.2218	0.23
Mof_C 	C 	0.8363	0.1637	0.0968	0.766
Mof_C 	C 	0.303	0.697	0.6594	-0.354
Mof_C 	C 	0.2759	0.7241	0.7218	0.224
Mof_C 	C 	0.3363	0.6637	0.5968	0.747
Mof_C 	C 	0.197	0.803	0.1594	-0.376
Mof_C 	C 	0.2241	0.7759	0.2218	0.23
Mof_C 	C 	0.1637	0.8363	0.0968	0.766
Mof_C 	C 	0.697	0.303	0.6594	-0.354
Mof_C 	C 	0.7241	0.2759	0.7218	0.224
Mof_C 	C 	0.6637	0.3363	0.5968	0.747
Mof_C 	C 	0.3085	0.8085	0.75	-0.478
Mof_H 	H 	0.3564	0.8564	0.75	0.175
Mof_C 	C 	0.6915	0.1915	0.75	-0.481
Mof_H 	H 	0.6436	0.1436	0.75	0.164
Mof_C 	C 	0.1915	0.3085	0.75	-0.484
Mof_H 	H 	0.1436	0.3564	0.75	0.164
Mof_C 	C 	0.8085	0.6915	0.75	-0.474
Mof_H 	H 	0.8564	0.6436	0.75	0.175
Mof_C 	C 	0.3085	0.1915	0.25	-0.518
Mof_H 	H 	0.3564	0.1436	0.25	0.168
Mof_C 	C 	0.6915	0.8085	0.25	-0.506
Mof_H 	H 	0.6436	0.8564	0.25	0.179
Mof_C 	C 	0.8085	0.3085	0.25	-0.511
Mof_H 	H 	0.8564	0.3564	0.25	0.179
Mof_C 	C 	0.1915	0.6915	0.25	-0.514
Mof_H 	H 	0.1436	0.6436	0.25	0.169
Mof_C 	C 	0.6915	0.1915	0.25	-0.514
Mof_H 	H 	0.6436	0.1436	0.25	0.169
Mof_C 	C 	0.3085	0.8085	0.25	-0.511
Mof_H 	H 	0.3564	0.8564	0.25	0.179
Mof_C 	C 	0.8085	0.6915	0.25	-0.506
Mof_H 	H 	0.8564	0.6436	0.25	0.179
Mof_C 	C 	0.1915	0.3085	0.25	-0.518
Mof_H 	H 	0.1436	0.3564	0.25	0.168
Mof_C 	C 	0.3085	0.1915	0.75	-0.484
Mof_H 	H 	0.3564	0.1436	0.75	0.164
Mof_C 	C 	0.6915	0.8085	0.75	-0.474
Mof_H 	H 	0.6436	0.8564	0.75	0.175
Mof_C 	C 	0.1915	0.6915	0.75	-0.481
Mof_H 	H 	0.1436	0.6436	0.75	0.164
Mof_C 	C 	0.8085	0.3085	0.75	-0.478
Mof_H 	H 	0.8564	0.3564	0.75	0.175
_end
