# CIF file generated by openbabel 2.4.1, see http://openbabel.sf.net
data_I
_chemical_name_common 'image0'
_cell_length_a 25.898
_cell_length_b 25.898
_cell_length_c 32.995
_cell_angle_alpha 90
_cell_angle_beta 90
_cell_angle_gamma 120
_space_group_name_H-M_alt 'P 1'
_space_group_name_Hall 'P 1'
loop_
    _symmetry_equiv_pos_as_xyz
    x,y,z
loop_
    _atom_site_label
    _atom_site_type_symbol
    _atom_site_fract_x
    _atom_site_fract_y
    _atom_site_fract_z
    _atom_site_occupancy
    Fe1     Fe   0.46520   0.29600   0.05170   1.000
    O1      O    0.31540   0.90910   0.07450   1.000
    O2      O    0.26160   0.94050   0.04142   1.000
    O3      O    0.33960   0.15960   0.04117   1.000
    O4      O    0.42340   0.21550   0.07558   1.000
    O5      O    0.52880   0.27840   0.03280   1.000
    O6      O    0.51320   0.38280   0.03160   1.000
    C1      C    0.52130   0.08120   0.23350   1.000
    C2      C    0.54520   0.09780   0.19490   1.000
    H1      H    0.58620   0.11110   0.19040   1.000
    C3      C    0.50900   0.09490   0.16280   1.000
    C4      C    0.42490   0.05890   0.20810   1.000
    C5      C    0.46130   0.06280   0.24030   1.000
    H2      H    0.44540   0.05310   0.26690   1.000
    C6      C    0.53120   0.11480   0.12000   1.000
    H3      H    0.49710   0.09950   0.10140   1.000
    H4      H    0.55740   0.09930   0.11200   1.000
    H5      H    0.55350   0.15840   0.11880   1.000
    C7      C    0.35930   0.03470   0.21990   1.000
    H6      H    0.35680   0.04120   0.24890   1.000
    H7      H    0.33630   0.99190   0.21400   1.000
    H8      H    0.34310   0.05550   0.20430   1.000
    C8      C    0.44960   0.07570   0.16911   1.000
    C9      C    0.41020   0.06930   0.13440   1.000
    C10     C    0.37320   0.01440   0.11720   1.000
    H9      H    0.37240   0.98020   0.12850   1.000
    C11     C    0.33760   0.00710   0.08440   1.000
    C12     C    0.33840   0.05730   0.06900   1.000
    H10     H    0.31290   0.05300   0.04690   1.000
    C13     C    0.37480   0.11280   0.08460   1.000
    C14     C    0.41070   0.11860   0.11740   1.000
    H11     H    0.43610   0.15700   0.12850   1.000
    C15     C    0.30090   0.94740   0.06530   1.000
    C16     C    0.38020   0.16750   0.06560   1.000
    Co1     Co   0.46300   0.29600   0.04470   1.000
    C17     C    0.53350   0.06920   0.19460   1.000
    H12     H    0.56540   0.06170   0.19020   1.000
    C18     C    0.49870   0.06810   0.16200   1.000
    C19     C    0.44030   0.09150   0.20740   1.000
    C20     C    0.47570   0.09380   0.23960   1.000
    H13     H    0.46880   0.10390   0.26600   1.000
    C21     C    0.51650   0.05540   0.12030   1.000
    H14     H    0.51410   0.08170   0.10000   1.000
    H15     H    0.48930   0.01370   0.11280   1.000
    H16     H    0.55740   0.06260   0.12150   1.000
    C22     C    0.39000   0.10460   0.21330   1.000
    H17     H    0.39820   0.14000   0.19760   1.000
    H18     H    0.38680   0.11180   0.24210   1.000
    H19     H    0.35250   0.07040   0.20400   1.000
    H20     H    0.60570   0.25230   0.97270   1.000
    H21     H    0.56940   0.20620   0.00820   1.000
    H22     H    0.62140   0.27210   0.01910   1.000
    H23     H    0.56630   0.48900   0.97200   1.000
    H24     H    0.53820   0.49020   0.01500   1.000
    H25     H    0.59870   0.48770   0.01300   1.000
    Fe2     Fe   0.70400   0.16920   0.05170   1.000
    O7      O    0.09090   0.40630   0.07450   1.000
    O8      O    0.05950   0.32110   0.04142   1.000
    O9      O    0.84040   0.18000   0.04117   1.000
    O10     O    0.78450   0.20790   0.07558   1.000
    O11     O    0.72160   0.25040   0.03280   1.000
    O12     O    0.61720   0.13040   0.03160   1.000
    C23     C    0.91880   0.44010   0.23350   1.000
    C24     C    0.90220   0.44740   0.19490   1.000
    H26     H    0.88890   0.47510   0.19040   1.000
    C25     C    0.90510   0.41410   0.16280   1.000
    C26     C    0.94110   0.36600   0.20810   1.000
    C27     C    0.93720   0.39850   0.24030   1.000
    H27     H    0.94690   0.39230   0.26690   1.000
    C28     C    0.88520   0.41640   0.12000   1.000
    H28     H    0.90050   0.39760   0.10140   1.000
    H29     H    0.90070   0.45810   0.11200   1.000
    H30     H    0.84160   0.39510   0.11880   1.000
    C29     C    0.96530   0.32460   0.21990   1.000
    H31     H    0.95880   0.31560   0.24890   1.000
    H32     H    0.00810   0.34440   0.21400   1.000
    H33     H    0.94450   0.28760   0.20430   1.000
    C30     C    0.92430   0.37390   0.16911   1.000
    C31     C    0.93070   0.34090   0.13440   1.000
    C32     C    0.98560   0.35880   0.11720   1.000
    H34     H    0.01980   0.39220   0.12850   1.000
    C33     C    0.99290   0.33050   0.08440   1.000
    C34     C    0.94270   0.28110   0.06900   1.000
    H35     H    0.94700   0.25990   0.04690   1.000
    C35     C    0.88720   0.26200   0.08460   1.000
    C36     C    0.88140   0.29210   0.11740   1.000
    H36     H    0.84300   0.27910   0.12850   1.000
    C37     C    0.05260   0.35350   0.06530   1.000
    C38     C    0.83250   0.21270   0.06560   1.000
    Co2     Co   0.70400   0.16700   0.04470   1.000
    C39     C    0.93080   0.46430   0.19460   1.000
    H37     H    0.93830   0.50370   0.19020   1.000
    C40     C    0.93190   0.43060   0.16200   1.000
    C41     C    0.90850   0.34880   0.20740   1.000
    C42     C    0.90620   0.38190   0.23960   1.000
    H38     H    0.89610   0.36490   0.26600   1.000
    C43     C    0.94460   0.46110   0.12030   1.000
    H39     H    0.91830   0.43240   0.10000   1.000
    H40     H    0.98630   0.47560   0.11280   1.000
    H41     H    0.93740   0.49480   0.12150   1.000
    C44     C    0.89540   0.28540   0.21330   1.000
    H42     H    0.86000   0.25820   0.19760   1.000
    H43     H    0.88820   0.27500   0.24210   1.000
    H44     H    0.92960   0.28210   0.20400   1.000
    H45     H    0.74770   0.35340   0.97270   1.000
    H46     H    0.79380   0.36320   0.00820   1.000
    H47     H    0.72790   0.34930   0.01910   1.000
    H48     H    0.51100   0.07730   0.97200   1.000
    H49     H    0.50980   0.04800   0.01500   1.000
    H50     H    0.51230   0.11100   0.01300   1.000
    Fe3     Fe   0.83080   0.53480   0.05170   1.000
    O13     O    0.59370   0.68460   0.07450   1.000
    O14     O    0.67890   0.73840   0.04142   1.000
    O15     O    0.82000   0.66040   0.04117   1.000
    O16     O    0.79210   0.57660   0.07558   1.000
    O17     O    0.74960   0.47120   0.03280   1.000
    O18     O    0.86960   0.48680   0.03160   1.000
    C45     C    0.55990   0.47870   0.23350   1.000
    C46     C    0.55260   0.45480   0.19490   1.000
    H51     H    0.52490   0.41380   0.19040   1.000
    C47     C    0.58590   0.49100   0.16280   1.000
    C48     C    0.63400   0.57510   0.20810   1.000
    C49     C    0.60150   0.53870   0.24030   1.000
    H52     H    0.60770   0.55460   0.26690   1.000
    C50     C    0.58360   0.46880   0.12000   1.000
    H53     H    0.60240   0.50290   0.10140   1.000
    H54     H    0.54190   0.44260   0.11200   1.000
    H55     H    0.60490   0.44650   0.11880   1.000
    C51     C    0.67540   0.64070   0.21990   1.000
    H56     H    0.68440   0.64320   0.24890   1.000
    H57     H    0.65560   0.66370   0.21400   1.000
    H58     H    0.71240   0.65690   0.20430   1.000
    C52     C    0.62610   0.55040   0.16911   1.000
    C53     C    0.65910   0.58980   0.13440   1.000
    C54     C    0.64120   0.62680   0.11720   1.000
    H59     H    0.60780   0.62760   0.12850   1.000
    C55     C    0.66950   0.66240   0.08440   1.000
    C56     C    0.71890   0.66160   0.06900   1.000
    H60     H    0.74010   0.68710   0.04690   1.000
    C57     C    0.73800   0.62520   0.08460   1.000
    C58     C    0.70790   0.58930   0.11740   1.000
    H61     H    0.72090   0.56390   0.12850   1.000
    C59     C    0.64650   0.69910   0.06530   1.000
    C60     C    0.78730   0.61980   0.06560   1.000
    Co3     Co   0.83300   0.53700   0.04470   1.000
    C61     C    0.53570   0.46650   0.19460   1.000
    H62     H    0.49630   0.43460   0.19020   1.000
    C62     C    0.56940   0.50130   0.16200   1.000
    C63     C    0.65120   0.55970   0.20740   1.000
    C64     C    0.61810   0.52430   0.23960   1.000
    H63     H    0.63510   0.53120   0.26600   1.000
    C65     C    0.53890   0.48350   0.12030   1.000
    H64     H    0.56760   0.48590   0.10000   1.000
    H65     H    0.52440   0.51070   0.11280   1.000
    H66     H    0.50520   0.44260   0.12150   1.000
    C66     C    0.71460   0.61000   0.21330   1.000
    H67     H    0.74180   0.60180   0.19760   1.000
    H68     H    0.72500   0.61320   0.24210   1.000
    H69     H    0.71790   0.64750   0.20400   1.000
    H70     H    0.64660   0.39430   0.97270   1.000
    H71     H    0.63680   0.43060   0.00820   1.000
    H72     H    0.65070   0.37860   0.01910   1.000
    H73     H    0.92270   0.43370   0.97200   1.000
    H74     H    0.95200   0.46180   0.01500   1.000
    H75     H    0.88900   0.40130   0.01300   1.000
    Fe4     Fe   0.53480   0.70400   0.05170   1.000
    O19     O    0.68460   0.09090   0.07450   1.000
    O20     O    0.73840   0.05950   0.04142   1.000
    O21     O    0.66040   0.84040   0.04117   1.000
    O22     O    0.57660   0.78450   0.07558   1.000
    O23     O    0.47120   0.72160   0.03280   1.000
    O24     O    0.48680   0.61720   0.03160   1.000
    C67     C    0.47870   0.91880   0.23350   1.000
    C68     C    0.45480   0.90220   0.19490   1.000
    H76     H    0.41380   0.88890   0.19040   1.000
    C69     C    0.49100   0.90510   0.16280   1.000
    C70     C    0.57510   0.94110   0.20810   1.000
    C71     C    0.53870   0.93720   0.24030   1.000
    H77     H    0.55460   0.94690   0.26690   1.000
    C72     C    0.46880   0.88520   0.12000   1.000
    H78     H    0.50290   0.90050   0.10140   1.000
    H79     H    0.44260   0.90070   0.11200   1.000
    H80     H    0.44650   0.84160   0.11880   1.000
    C73     C    0.64070   0.96530   0.21990   1.000
    H81     H    0.64320   0.95880   0.24890   1.000
    H82     H    0.66370   0.00810   0.21400   1.000
    H83     H    0.65690   0.94450   0.20430   1.000
    C74     C    0.55040   0.92430   0.16911   1.000
    C75     C    0.58980   0.93070   0.13440   1.000
    C76     C    0.62680   0.98560   0.11720   1.000
    H84     H    0.62760   0.01980   0.12850   1.000
    C77     C    0.66240   0.99290   0.08440   1.000
    C78     C    0.66160   0.94270   0.06900   1.000
    H85     H    0.68710   0.94700   0.04690   1.000
    C79     C    0.62520   0.88720   0.08460   1.000
    C80     C    0.58930   0.88140   0.11740   1.000
    H86     H    0.56390   0.84300   0.12850   1.000
    C81     C    0.69910   0.05260   0.06530   1.000
    C82     C    0.61980   0.83250   0.06560   1.000
    Co4     Co   0.53700   0.70400   0.04470   1.000
    C83     C    0.46650   0.93080   0.19460   1.000
    H87     H    0.43460   0.93830   0.19020   1.000
    C84     C    0.50130   0.93190   0.16200   1.000
    C85     C    0.55970   0.90850   0.20740   1.000
    C86     C    0.52430   0.90620   0.23960   1.000
    H88     H    0.53120   0.89610   0.26600   1.000
    C87     C    0.48350   0.94460   0.12030   1.000
    H89     H    0.48590   0.91830   0.10000   1.000
    H90     H    0.51070   0.98630   0.11280   1.000
    H91     H    0.44260   0.93740   0.12150   1.000
    C88     C    0.61000   0.89540   0.21330   1.000
    H92     H    0.60180   0.86000   0.19760   1.000
    H93     H    0.61320   0.88820   0.24210   1.000
    H94     H    0.64750   0.92960   0.20400   1.000
    H95     H    0.39430   0.74770   0.97270   1.000
    H96     H    0.43060   0.79380   0.00820   1.000
    H97     H    0.37860   0.72790   0.01910   1.000
    H98     H    0.43370   0.51100   0.97200   1.000
    H99     H    0.46180   0.50980   0.01500   1.000
    H100    H    0.40130   0.51230   0.01300   1.000
    Fe5     Fe   0.29600   0.83080   0.05170   1.000
    O25     O    0.90910   0.59370   0.07450   1.000
    O26     O    0.94050   0.67890   0.04142   1.000
    O27     O    0.15960   0.82000   0.04117   1.000
    O28     O    0.21550   0.79210   0.07558   1.000
    O29     O    0.27840   0.74960   0.03280   1.000
    O30     O    0.38280   0.86960   0.03160   1.000
    C89     C    0.08120   0.55990   0.23350   1.000
    C90     C    0.09780   0.55260   0.19490   1.000
    H101    H    0.11110   0.52490   0.19040   1.000
    C91     C    0.09490   0.58590   0.16280   1.000
    C92     C    0.05890   0.63400   0.20810   1.000
    C93     C    0.06280   0.60150   0.24030   1.000
    H102    H    0.05310   0.60770   0.26690   1.000
    C94     C    0.11480   0.58360   0.12000   1.000
    H103    H    0.09950   0.60240   0.10140   1.000
    H104    H    0.09930   0.54190   0.11200   1.000
    H105    H    0.15840   0.60490   0.11880   1.000
    C95     C    0.03470   0.67540   0.21990   1.000
    H106    H    0.04120   0.68440   0.24890   1.000
    H107    H    0.99190   0.65560   0.21400   1.000
    H108    H    0.05550   0.71240   0.20430   1.000
    C96     C    0.07570   0.62610   0.16911   1.000
    C97     C    0.06930   0.65910   0.13440   1.000
    C98     C    0.01440   0.64120   0.11720   1.000
    H109    H    0.98020   0.60780   0.12850   1.000
    C99     C    0.00710   0.66950   0.08440   1.000
    C100    C    0.05730   0.71890   0.06900   1.000
    H110    H    0.05300   0.74010   0.04690   1.000
    C101    C    0.11280   0.73800   0.08460   1.000
    C102    C    0.11860   0.70790   0.11740   1.000
    H111    H    0.15700   0.72090   0.12850   1.000
    C103    C    0.94740   0.64650   0.06530   1.000
    C104    C    0.16750   0.78730   0.06560   1.000
    Co5     Co   0.29600   0.83300   0.04470   1.000
    C105    C    0.06920   0.53570   0.19460   1.000
    H112    H    0.06170   0.49630   0.19020   1.000
    C106    C    0.06810   0.56940   0.16200   1.000
    C107    C    0.09150   0.65120   0.20740   1.000
    C108    C    0.09380   0.61810   0.23960   1.000
    H113    H    0.10390   0.63510   0.26600   1.000
    C109    C    0.05540   0.53890   0.12030   1.000
    H114    H    0.08170   0.56760   0.10000   1.000
    H115    H    0.01370   0.52440   0.11280   1.000
    H116    H    0.06260   0.50520   0.12150   1.000
    C110    C    0.10460   0.71460   0.21330   1.000
    H117    H    0.14000   0.74180   0.19760   1.000
    H118    H    0.11180   0.72500   0.24210   1.000
    H119    H    0.07040   0.71790   0.20400   1.000
    H120    H    0.25230   0.64660   0.97270   1.000
    H121    H    0.20620   0.63680   0.00820   1.000
    H122    H    0.27210   0.65070   0.01910   1.000
    H123    H    0.48900   0.92270   0.97200   1.000
    H124    H    0.49020   0.95200   0.01500   1.000
    H125    H    0.48770   0.88900   0.01300   1.000
    Fe6     Fe   0.16920   0.46520   0.05170   1.000
    O31     O    0.40630   0.31540   0.07450   1.000
    O32     O    0.32110   0.26160   0.04142   1.000
    O33     O    0.18000   0.33960   0.04117   1.000
    O34     O    0.20790   0.42340   0.07558   1.000
    O35     O    0.25040   0.52880   0.03280   1.000
    O36     O    0.13040   0.51320   0.03160   1.000
    C111    C    0.44010   0.52130   0.23350   1.000
    C112    C    0.44740   0.54520   0.19490   1.000
    H126    H    0.47510   0.58620   0.19040   1.000
    C113    C    0.41410   0.50900   0.16280   1.000
    C114    C    0.36600   0.42490   0.20810   1.000
    C115    C    0.39850   0.46130   0.24030   1.000
    H127    H    0.39230   0.44540   0.26690   1.000
    C116    C    0.41640   0.53120   0.12000   1.000
    H128    H    0.39760   0.49710   0.10140   1.000
    H129    H    0.45810   0.55740   0.11200   1.000
    H130    H    0.39510   0.55350   0.11880   1.000
    C117    C    0.32460   0.35930   0.21990   1.000
    H131    H    0.31560   0.35680   0.24890   1.000
    H132    H    0.34440   0.33630   0.21400   1.000
    H133    H    0.28760   0.34310   0.20430   1.000
    C118    C    0.37390   0.44960   0.16911   1.000
    C119    C    0.34090   0.41020   0.13440   1.000
    C120    C    0.35880   0.37320   0.11720   1.000
    H134    H    0.39220   0.37240   0.12850   1.000
    C121    C    0.33050   0.33760   0.08440   1.000
    C122    C    0.28110   0.33840   0.06900   1.000
    H135    H    0.25990   0.31290   0.04690   1.000
    C123    C    0.26200   0.37480   0.08460   1.000
    C124    C    0.29210   0.41070   0.11740   1.000
    H136    H    0.27910   0.43610   0.12850   1.000
    C125    C    0.35350   0.30090   0.06530   1.000
    C126    C    0.21270   0.38020   0.06560   1.000
    Co6     Co   0.16700   0.46300   0.04470   1.000
    C127    C    0.46430   0.53350   0.19460   1.000
    H137    H    0.50370   0.56540   0.19020   1.000
    C128    C    0.43060   0.49870   0.16200   1.000
    C129    C    0.34880   0.44030   0.20740   1.000
    C130    C    0.38190   0.47570   0.23960   1.000
    H138    H    0.36490   0.46880   0.26600   1.000
    C131    C    0.46110   0.51650   0.12030   1.000
    H139    H    0.43240   0.51410   0.10000   1.000
    H140    H    0.47560   0.48930   0.11280   1.000
    H141    H    0.49480   0.55740   0.12150   1.000
    C132    C    0.28540   0.39000   0.21330   1.000
    H142    H    0.25820   0.39820   0.19760   1.000
    H143    H    0.27500   0.38680   0.24210   1.000
    H144    H    0.28210   0.35250   0.20400   1.000
    H145    H    0.35340   0.60570   0.97270   1.000
    H146    H    0.36320   0.56940   0.00820   1.000
    H147    H    0.34930   0.62140   0.01910   1.000
    H148    H    0.07730   0.56630   0.97200   1.000
    H149    H    0.04800   0.53820   0.01500   1.000
    H150    H    0.11100   0.59870   0.01300   1.000
    Fe7     Fe   0.29600   0.46520   0.44830   1.000
    O37     O    0.90910   0.31540   0.42550   1.000
    O38     O    0.94050   0.26160   0.45858   1.000
    O39     O    0.15960   0.33960   0.45883   1.000
    O40     O    0.21550   0.42340   0.42442   1.000
    O41     O    0.27840   0.52880   0.46720   1.000
    O42     O    0.38280   0.51320   0.46840   1.000
    C133    C    0.08120   0.52130   0.26650   1.000
    C134    C    0.09780   0.54520   0.30510   1.000
    H151    H    0.11110   0.58620   0.30960   1.000
    C135    C    0.09490   0.50900   0.33720   1.000
    C136    C    0.05890   0.42490   0.29190   1.000
    C137    C    0.06280   0.46130   0.25970   1.000
    H152    H    0.05310   0.44540   0.23310   1.000
    C138    C    0.11480   0.53120   0.38000   1.000
    H153    H    0.09950   0.49710   0.39860   1.000
    H154    H    0.09930   0.55740   0.38800   1.000
    H155    H    0.15840   0.55350   0.38120   1.000
    C139    C    0.03470   0.35930   0.28010   1.000
    H156    H    0.04120   0.35680   0.25110   1.000
    H157    H    0.99190   0.33630   0.28600   1.000
    H158    H    0.05550   0.34310   0.29570   1.000
    C140    C    0.07570   0.44960   0.33089   1.000
    C141    C    0.06930   0.41020   0.36560   1.000
    C142    C    0.01440   0.37320   0.38280   1.000
    H159    H    0.98020   0.37240   0.37150   1.000
    C143    C    0.00710   0.33760   0.41560   1.000
    C144    C    0.05730   0.33840   0.43100   1.000
    H160    H    0.05300   0.31290   0.45310   1.000
    C145    C    0.11280   0.37480   0.41540   1.000
    C146    C    0.11860   0.41070   0.38260   1.000
    H161    H    0.15700   0.43610   0.37150   1.000
    C147    C    0.94740   0.30090   0.43470   1.000
    C148    C    0.16750   0.38020   0.43440   1.000
    Co7     Co   0.29600   0.46300   0.45530   1.000
    C149    C    0.06920   0.53350   0.30540   1.000
    H162    H    0.06170   0.56540   0.30980   1.000
    C150    C    0.06810   0.49870   0.33800   1.000
    C151    C    0.09150   0.44030   0.29260   1.000
    C152    C    0.09380   0.47570   0.26040   1.000
    H163    H    0.10390   0.46880   0.23400   1.000
    C153    C    0.05540   0.51650   0.37970   1.000
    H164    H    0.08170   0.51410   0.40000   1.000
    H165    H    0.01370   0.48930   0.38720   1.000
    H166    H    0.06260   0.55740   0.37850   1.000
    C154    C    0.10460   0.39000   0.28670   1.000
    H167    H    0.14000   0.39820   0.30240   1.000
    H168    H    0.11180   0.38680   0.25790   1.000
    H169    H    0.07040   0.35250   0.29600   1.000
    H170    H    0.25230   0.60570   0.52730   1.000
    H171    H    0.20620   0.56940   0.49180   1.000
    H172    H    0.27210   0.62140   0.48090   1.000
    H173    H    0.48900   0.56630   0.52800   1.000
    H174    H    0.49020   0.53820   0.48500   1.000
    H175    H    0.48770   0.59870   0.48700   1.000
    Fe8     Fe   0.16920   0.70400   0.44830   1.000
    O43     O    0.40630   0.09090   0.42550   1.000
    O44     O    0.32110   0.05950   0.45858   1.000
    O45     O    0.18000   0.84040   0.45883   1.000
    O46     O    0.20790   0.78450   0.42442   1.000
    O47     O    0.25040   0.72160   0.46720   1.000
    O48     O    0.13040   0.61720   0.46840   1.000
    C155    C    0.44010   0.91880   0.26650   1.000
    C156    C    0.44740   0.90220   0.30510   1.000
    H176    H    0.47510   0.88890   0.30960   1.000
    C157    C    0.41410   0.90510   0.33720   1.000
    C158    C    0.36600   0.94110   0.29190   1.000
    C159    C    0.39850   0.93720   0.25970   1.000
    H177    H    0.39230   0.94690   0.23310   1.000
    C160    C    0.41640   0.88520   0.38000   1.000
    H178    H    0.39760   0.90050   0.39860   1.000
    H179    H    0.45810   0.90070   0.38800   1.000
    H180    H    0.39510   0.84160   0.38120   1.000
    C161    C    0.32460   0.96530   0.28010   1.000
    H181    H    0.31560   0.95880   0.25110   1.000
    H182    H    0.34440   0.00810   0.28600   1.000
    H183    H    0.28760   0.94450   0.29570   1.000
    C162    C    0.37390   0.92430   0.33089   1.000
    C163    C    0.34090   0.93070   0.36560   1.000
    C164    C    0.35880   0.98560   0.38280   1.000
    H184    H    0.39220   0.01980   0.37150   1.000
    C165    C    0.33050   0.99290   0.41560   1.000
    C166    C    0.28110   0.94270   0.43100   1.000
    H185    H    0.25990   0.94700   0.45310   1.000
    C167    C    0.26200   0.88720   0.41540   1.000
    C168    C    0.29210   0.88140   0.38260   1.000
    H186    H    0.27910   0.84300   0.37150   1.000
    C169    C    0.35350   0.05260   0.43470   1.000
    C170    C    0.21270   0.83250   0.43440   1.000
    Co8     Co   0.16700   0.70400   0.45530   1.000
    C171    C    0.46430   0.93080   0.30540   1.000
    H187    H    0.50370   0.93830   0.30980   1.000
    C172    C    0.43060   0.93190   0.33800   1.000
    C173    C    0.34880   0.90850   0.29260   1.000
    C174    C    0.38190   0.90620   0.26040   1.000
    H188    H    0.36490   0.89610   0.23400   1.000
    C175    C    0.46110   0.94460   0.37970   1.000
    H189    H    0.43240   0.91830   0.40000   1.000
    H190    H    0.47560   0.98630   0.38720   1.000
    H191    H    0.49480   0.93740   0.37850   1.000
    C176    C    0.28540   0.89540   0.28670   1.000
    H192    H    0.25820   0.86000   0.30240   1.000
    H193    H    0.27500   0.88820   0.25790   1.000
    H194    H    0.28210   0.92960   0.29600   1.000
    H195    H    0.35340   0.74770   0.52730   1.000
    H196    H    0.36320   0.79380   0.49180   1.000
    H197    H    0.34930   0.72790   0.48090   1.000
    H198    H    0.07730   0.51100   0.52800   1.000
    H199    H    0.04800   0.50980   0.48500   1.000
    H200    H    0.11100   0.51230   0.48700   1.000
    Fe9     Fe   0.53480   0.83080   0.44830   1.000
    O49     O    0.68460   0.59370   0.42550   1.000
    O50     O    0.73840   0.67890   0.45858   1.000
    O51     O    0.66040   0.82000   0.45883   1.000
    O52     O    0.57660   0.79210   0.42442   1.000
    O53     O    0.47120   0.74960   0.46720   1.000
    O54     O    0.48680   0.86960   0.46840   1.000
    C177    C    0.47870   0.55990   0.26650   1.000
    C178    C    0.45480   0.55260   0.30510   1.000
    H201    H    0.41380   0.52490   0.30960   1.000
    C179    C    0.49100   0.58590   0.33720   1.000
    C180    C    0.57510   0.63400   0.29190   1.000
    C181    C    0.53870   0.60150   0.25970   1.000
    H202    H    0.55460   0.60770   0.23310   1.000
    C182    C    0.46880   0.58360   0.38000   1.000
    H203    H    0.50290   0.60240   0.39860   1.000
    H204    H    0.44260   0.54190   0.38800   1.000
    H205    H    0.44650   0.60490   0.38120   1.000
    C183    C    0.64070   0.67540   0.28010   1.000
    H206    H    0.64320   0.68440   0.25110   1.000
    H207    H    0.66370   0.65560   0.28600   1.000
    H208    H    0.65690   0.71240   0.29570   1.000
    C184    C    0.55040   0.62610   0.33089   1.000
    C185    C    0.58980   0.65910   0.36560   1.000
    C186    C    0.62680   0.64120   0.38280   1.000
    H209    H    0.62760   0.60780   0.37150   1.000
    C187    C    0.66240   0.66950   0.41560   1.000
    C188    C    0.66160   0.71890   0.43100   1.000
    H210    H    0.68710   0.74010   0.45310   1.000
    C189    C    0.62520   0.73800   0.41540   1.000
    C190    C    0.58930   0.70790   0.38260   1.000
    H211    H    0.56390   0.72090   0.37150   1.000
    C191    C    0.69910   0.64650   0.43470   1.000
    C192    C    0.61980   0.78730   0.43440   1.000
    Co9     Co   0.53700   0.83300   0.45530   1.000
    C193    C    0.46650   0.53570   0.30540   1.000
    H212    H    0.43460   0.49630   0.30980   1.000
    C194    C    0.50130   0.56940   0.33800   1.000
    C195    C    0.55970   0.65120   0.29260   1.000
    C196    C    0.52430   0.61810   0.26040   1.000
    H213    H    0.53120   0.63510   0.23400   1.000
    C197    C    0.48350   0.53890   0.37970   1.000
    H214    H    0.48590   0.56760   0.40000   1.000
    H215    H    0.51070   0.52440   0.38720   1.000
    H216    H    0.44260   0.50520   0.37850   1.000
    C198    C    0.61000   0.71460   0.28670   1.000
    H217    H    0.60180   0.74180   0.30240   1.000
    H218    H    0.61320   0.72500   0.25790   1.000
    H219    H    0.64750   0.71790   0.29600   1.000
    H220    H    0.39430   0.64660   0.52730   1.000
    H221    H    0.43060   0.63680   0.49180   1.000
    H222    H    0.37860   0.65070   0.48090   1.000
    H223    H    0.43370   0.92270   0.52800   1.000
    H224    H    0.46180   0.95200   0.48500   1.000
    H225    H    0.40130   0.88900   0.48700   1.000
    Fe10    Fe   0.70400   0.53480   0.44830   1.000
    O55     O    0.09090   0.68460   0.42550   1.000
    O56     O    0.05950   0.73840   0.45858   1.000
    O57     O    0.84040   0.66040   0.45883   1.000
    O58     O    0.78450   0.57660   0.42442   1.000
    O59     O    0.72160   0.47120   0.46720   1.000
    O60     O    0.61720   0.48680   0.46840   1.000
    C199    C    0.91880   0.47870   0.26650   1.000
    C200    C    0.90220   0.45480   0.30510   1.000
    H226    H    0.88890   0.41380   0.30960   1.000
    C201    C    0.90510   0.49100   0.33720   1.000
    C202    C    0.94110   0.57510   0.29190   1.000
    C203    C    0.93720   0.53870   0.25970   1.000
    H227    H    0.94690   0.55460   0.23310   1.000
    C204    C    0.88520   0.46880   0.38000   1.000
    H228    H    0.90050   0.50290   0.39860   1.000
    H229    H    0.90070   0.44260   0.38800   1.000
    H230    H    0.84160   0.44650   0.38120   1.000
    C205    C    0.96530   0.64070   0.28010   1.000
    H231    H    0.95880   0.64320   0.25110   1.000
    H232    H    0.00810   0.66370   0.28600   1.000
    H233    H    0.94450   0.65690   0.29570   1.000
    C206    C    0.92430   0.55040   0.33089   1.000
    C207    C    0.93070   0.58980   0.36560   1.000
    C208    C    0.98560   0.62680   0.38280   1.000
    H234    H    0.01980   0.62760   0.37150   1.000
    C209    C    0.99290   0.66240   0.41560   1.000
    C210    C    0.94270   0.66160   0.43100   1.000
    H235    H    0.94700   0.68710   0.45310   1.000
    C211    C    0.88720   0.62520   0.41540   1.000
    C212    C    0.88140   0.58930   0.38260   1.000
    H236    H    0.84300   0.56390   0.37150   1.000
    C213    C    0.05260   0.69910   0.43470   1.000
    C214    C    0.83250   0.61980   0.43440   1.000
    Co10    Co   0.70400   0.53700   0.45530   1.000
    C215    C    0.93080   0.46650   0.30540   1.000
    H237    H    0.93830   0.43460   0.30980   1.000
    C216    C    0.93190   0.50130   0.33800   1.000
    C217    C    0.90850   0.55970   0.29260   1.000
    C218    C    0.90620   0.52430   0.26040   1.000
    H238    H    0.89610   0.53120   0.23400   1.000
    C219    C    0.94460   0.48350   0.37970   1.000
    H239    H    0.91830   0.48590   0.40000   1.000
    H240    H    0.98630   0.51070   0.38720   1.000
    H241    H    0.93740   0.44260   0.37850   1.000
    C220    C    0.89540   0.61000   0.28670   1.000
    H242    H    0.86000   0.60180   0.30240   1.000
    H243    H    0.88820   0.61320   0.25790   1.000
    H244    H    0.92960   0.64750   0.29600   1.000
    H245    H    0.74770   0.39430   0.52730   1.000
    H246    H    0.79380   0.43060   0.49180   1.000
    H247    H    0.72790   0.37860   0.48090   1.000
    H248    H    0.51100   0.43370   0.52800   1.000
    H249    H    0.50980   0.46180   0.48500   1.000
    H250    H    0.51230   0.40130   0.48700   1.000
    Fe11    Fe   0.83080   0.29600   0.44830   1.000
    O61     O    0.59370   0.90910   0.42550   1.000
    O62     O    0.67890   0.94050   0.45858   1.000
    O63     O    0.82000   0.15960   0.45883   1.000
    O64     O    0.79210   0.21550   0.42442   1.000
    O65     O    0.74960   0.27840   0.46720   1.000
    O66     O    0.86960   0.38280   0.46840   1.000
    C221    C    0.55990   0.08120   0.26650   1.000
    C222    C    0.55260   0.09780   0.30510   1.000
    H251    H    0.52490   0.11110   0.30960   1.000
    C223    C    0.58590   0.09490   0.33720   1.000
    C224    C    0.63400   0.05890   0.29190   1.000
    C225    C    0.60150   0.06280   0.25970   1.000
    H252    H    0.60770   0.05310   0.23310   1.000
    C226    C    0.58360   0.11480   0.38000   1.000
    H253    H    0.60240   0.09950   0.39860   1.000
    H254    H    0.54190   0.09930   0.38800   1.000
    H255    H    0.60490   0.15840   0.38120   1.000
    C227    C    0.67540   0.03470   0.28010   1.000
    H256    H    0.68440   0.04120   0.25110   1.000
    H257    H    0.65560   0.99190   0.28600   1.000
    H258    H    0.71240   0.05550   0.29570   1.000
    C228    C    0.62610   0.07570   0.33089   1.000
    C229    C    0.65910   0.06930   0.36560   1.000
    C230    C    0.64120   0.01440   0.38280   1.000
    H259    H    0.60780   0.98020   0.37150   1.000
    C231    C    0.66950   0.00710   0.41560   1.000
    C232    C    0.71890   0.05730   0.43100   1.000
    H260    H    0.74010   0.05300   0.45310   1.000
    C233    C    0.73800   0.11280   0.41540   1.000
    C234    C    0.70790   0.11860   0.38260   1.000
    H261    H    0.72090   0.15700   0.37150   1.000
    C235    C    0.64650   0.94740   0.43470   1.000
    C236    C    0.78730   0.16750   0.43440   1.000
    Co11    Co   0.83300   0.29600   0.45530   1.000
    C237    C    0.53570   0.06920   0.30540   1.000
    H262    H    0.49630   0.06170   0.30980   1.000
    C238    C    0.56940   0.06810   0.33800   1.000
    C239    C    0.65120   0.09150   0.29260   1.000
    C240    C    0.61810   0.09380   0.26040   1.000
    H263    H    0.63510   0.10390   0.23400   1.000
    C241    C    0.53890   0.05540   0.37970   1.000
    H264    H    0.56760   0.08170   0.40000   1.000
    H265    H    0.52440   0.01370   0.38720   1.000
    H266    H    0.50520   0.06260   0.37850   1.000
    C242    C    0.71460   0.10460   0.28670   1.000
    H267    H    0.74180   0.14000   0.30240   1.000
    H268    H    0.72500   0.11180   0.25790   1.000
    H269    H    0.71790   0.07040   0.29600   1.000
    H270    H    0.64660   0.25230   0.52730   1.000
    H271    H    0.63680   0.20620   0.49180   1.000
    H272    H    0.65070   0.27210   0.48090   1.000
    H273    H    0.92270   0.48900   0.52800   1.000
    H274    H    0.95200   0.49020   0.48500   1.000
    H275    H    0.88900   0.48770   0.48700   1.000
    Fe12    Fe   0.46520   0.16920   0.44830   1.000
    O67     O    0.31540   0.40630   0.42550   1.000
    O68     O    0.26160   0.32110   0.45858   1.000
    O69     O    0.33960   0.18000   0.45883   1.000
    O70     O    0.42340   0.20790   0.42442   1.000
    O71     O    0.52880   0.25040   0.46720   1.000
    O72     O    0.51320   0.13040   0.46840   1.000
    C243    C    0.52130   0.44010   0.26650   1.000
    C244    C    0.54520   0.44740   0.30510   1.000
    H276    H    0.58620   0.47510   0.30960   1.000
    C245    C    0.50900   0.41410   0.33720   1.000
    C246    C    0.42490   0.36600   0.29190   1.000
    C247    C    0.46130   0.39850   0.25970   1.000
    H277    H    0.44540   0.39230   0.23310   1.000
    C248    C    0.53120   0.41640   0.38000   1.000
    H278    H    0.49710   0.39760   0.39860   1.000
    H279    H    0.55740   0.45810   0.38800   1.000
    H280    H    0.55350   0.39510   0.38120   1.000
    C249    C    0.35930   0.32460   0.28010   1.000
    H281    H    0.35680   0.31560   0.25110   1.000
    H282    H    0.33630   0.34440   0.28600   1.000
    H283    H    0.34310   0.28760   0.29570   1.000
    C250    C    0.44960   0.37390   0.33089   1.000
    C251    C    0.41020   0.34090   0.36560   1.000
    C252    C    0.37320   0.35880   0.38280   1.000
    H284    H    0.37240   0.39220   0.37150   1.000
    C253    C    0.33760   0.33050   0.41560   1.000
    C254    C    0.33840   0.28110   0.43100   1.000
    H285    H    0.31290   0.25990   0.45310   1.000
    C255    C    0.37480   0.26200   0.41540   1.000
    C256    C    0.41070   0.29210   0.38260   1.000
    H286    H    0.43610   0.27910   0.37150   1.000
    C257    C    0.30090   0.35350   0.43470   1.000
    C258    C    0.38020   0.21270   0.43440   1.000
    Co12    Co   0.46300   0.16700   0.45530   1.000
    C259    C    0.53350   0.46430   0.30540   1.000
    H287    H    0.56540   0.50370   0.30980   1.000
    C260    C    0.49870   0.43060   0.33800   1.000
    C261    C    0.44030   0.34880   0.29260   1.000
    C262    C    0.47570   0.38190   0.26040   1.000
    H288    H    0.46880   0.36490   0.23400   1.000
    C263    C    0.51650   0.46110   0.37970   1.000
    H289    H    0.51410   0.43240   0.40000   1.000
    H290    H    0.48930   0.47560   0.38720   1.000
    H291    H    0.55740   0.49480   0.37850   1.000
    C264    C    0.39000   0.28540   0.28670   1.000
    H292    H    0.39820   0.25820   0.30240   1.000
    H293    H    0.38680   0.27500   0.25790   1.000
    H294    H    0.35250   0.28210   0.29600   1.000
    H295    H    0.60570   0.35340   0.52730   1.000
    H296    H    0.56940   0.36320   0.49180   1.000
    H297    H    0.62140   0.34930   0.48090   1.000
    H298    H    0.56630   0.07730   0.52800   1.000
    H299    H    0.53820   0.04800   0.48500   1.000
    H300    H    0.59870   0.11100   0.48700   1.000
    Fe13    Fe   0.53480   0.70400   0.94830   1.000
    O73     O    0.68460   0.09090   0.92550   1.000
    O74     O    0.73840   0.05950   0.95858   1.000
    O75     O    0.66040   0.84040   0.95883   1.000
    O76     O    0.57660   0.78450   0.92442   1.000
    O77     O    0.47120   0.72160   0.96720   1.000
    O78     O    0.48680   0.61720   0.96840   1.000
    C265    C    0.47870   0.91880   0.76650   1.000
    C266    C    0.45480   0.90220   0.80510   1.000
    H301    H    0.41380   0.88890   0.80960   1.000
    C267    C    0.49100   0.90510   0.83720   1.000
    C268    C    0.57510   0.94110   0.79190   1.000
    C269    C    0.53870   0.93720   0.75970   1.000
    H302    H    0.55460   0.94690   0.73310   1.000
    C270    C    0.46880   0.88520   0.88000   1.000
    H303    H    0.50290   0.90050   0.89860   1.000
    H304    H    0.44260   0.90070   0.88800   1.000
    H305    H    0.44650   0.84160   0.88120   1.000
    C271    C    0.64070   0.96530   0.78010   1.000
    H306    H    0.64320   0.95880   0.75110   1.000
    H307    H    0.66370   0.00810   0.78600   1.000
    H308    H    0.65690   0.94450   0.79570   1.000
    C272    C    0.55040   0.92430   0.83089   1.000
    C273    C    0.58980   0.93070   0.86560   1.000
    C274    C    0.62680   0.98560   0.88280   1.000
    H309    H    0.62760   0.01980   0.87150   1.000
    C275    C    0.66240   0.99290   0.91560   1.000
    C276    C    0.66160   0.94270   0.93100   1.000
    H310    H    0.68710   0.94700   0.95310   1.000
    C277    C    0.62520   0.88720   0.91540   1.000
    C278    C    0.58930   0.88140   0.88260   1.000
    H311    H    0.56390   0.84300   0.87150   1.000
    C279    C    0.69910   0.05260   0.93470   1.000
    C280    C    0.61980   0.83250   0.93440   1.000
    Co13    Co   0.53700   0.70400   0.95530   1.000
    C281    C    0.46650   0.93080   0.80540   1.000
    H312    H    0.43460   0.93830   0.80980   1.000
    C282    C    0.50130   0.93190   0.83800   1.000
    C283    C    0.55970   0.90850   0.79260   1.000
    C284    C    0.52430   0.90620   0.76040   1.000
    H313    H    0.53120   0.89610   0.73400   1.000
    C285    C    0.48350   0.94460   0.87970   1.000
    H314    H    0.48590   0.91830   0.90000   1.000
    H315    H    0.51070   0.98630   0.88720   1.000
    H316    H    0.44260   0.93740   0.87850   1.000
    C286    C    0.61000   0.89540   0.78670   1.000
    H317    H    0.60180   0.86000   0.80240   1.000
    H318    H    0.61320   0.88820   0.75790   1.000
    H319    H    0.64750   0.92960   0.79600   1.000
    H320    H    0.39430   0.74770   0.02730   1.000
    H321    H    0.43060   0.79380   0.99180   1.000
    H322    H    0.37860   0.72790   0.98090   1.000
    H323    H    0.43370   0.51100   0.02800   1.000
    H324    H    0.46180   0.50980   0.98500   1.000
    H325    H    0.40130   0.51230   0.98700   1.000
    Fe14    Fe   0.29600   0.83080   0.94830   1.000
    O79     O    0.90910   0.59370   0.92550   1.000
    O80     O    0.94050   0.67890   0.95858   1.000
    O81     O    0.15960   0.82000   0.95883   1.000
    O82     O    0.21550   0.79210   0.92442   1.000
    O83     O    0.27840   0.74960   0.96720   1.000
    O84     O    0.38280   0.86960   0.96840   1.000
    C287    C    0.08120   0.55990   0.76650   1.000
    C288    C    0.09780   0.55260   0.80510   1.000
    H326    H    0.11110   0.52490   0.80960   1.000
    C289    C    0.09490   0.58590   0.83720   1.000
    C290    C    0.05890   0.63400   0.79190   1.000
    C291    C    0.06280   0.60150   0.75970   1.000
    H327    H    0.05310   0.60770   0.73310   1.000
    C292    C    0.11480   0.58360   0.88000   1.000
    H328    H    0.09950   0.60240   0.89860   1.000
    H329    H    0.09930   0.54190   0.88800   1.000
    H330    H    0.15840   0.60490   0.88120   1.000
    C293    C    0.03470   0.67540   0.78010   1.000
    H331    H    0.04120   0.68440   0.75110   1.000
    H332    H    0.99190   0.65560   0.78600   1.000
    H333    H    0.05550   0.71240   0.79570   1.000
    C294    C    0.07570   0.62610   0.83089   1.000
    C295    C    0.06930   0.65910   0.86560   1.000
    C296    C    0.01440   0.64120   0.88280   1.000
    H334    H    0.98020   0.60780   0.87150   1.000
    C297    C    0.00710   0.66950   0.91560   1.000
    C298    C    0.05730   0.71890   0.93100   1.000
    H335    H    0.05300   0.74010   0.95310   1.000
    C299    C    0.11280   0.73800   0.91540   1.000
    C300    C    0.11860   0.70790   0.88260   1.000
    H336    H    0.15700   0.72090   0.87150   1.000
    C301    C    0.94740   0.64650   0.93470   1.000
    C302    C    0.16750   0.78730   0.93440   1.000
    Co14    Co   0.29600   0.83300   0.95530   1.000
    C303    C    0.06920   0.53570   0.80540   1.000
    H337    H    0.06170   0.49630   0.80980   1.000
    C304    C    0.06810   0.56940   0.83800   1.000
    C305    C    0.09150   0.65120   0.79260   1.000
    C306    C    0.09380   0.61810   0.76040   1.000
    H338    H    0.10390   0.63510   0.73400   1.000
    C307    C    0.05540   0.53890   0.87970   1.000
    H339    H    0.08170   0.56760   0.90000   1.000
    H340    H    0.01370   0.52440   0.88720   1.000
    H341    H    0.06260   0.50520   0.87850   1.000
    C308    C    0.10460   0.71460   0.78670   1.000
    H342    H    0.14000   0.74180   0.80240   1.000
    H343    H    0.11180   0.72500   0.75790   1.000
    H344    H    0.07040   0.71790   0.79600   1.000
    H345    H    0.25230   0.64660   0.02730   1.000
    H346    H    0.20620   0.63680   0.99180   1.000
    H347    H    0.27210   0.65070   0.98090   1.000
    H348    H    0.48900   0.92270   0.02800   1.000
    H349    H    0.49020   0.95200   0.98500   1.000
    H350    H    0.48770   0.88900   0.98700   1.000
    Fe15    Fe   0.16920   0.46520   0.94830   1.000
    O85     O    0.40630   0.31540   0.92550   1.000
    O86     O    0.32110   0.26160   0.95858   1.000
    O87     O    0.18000   0.33960   0.95883   1.000
    O88     O    0.20790   0.42340   0.92442   1.000
    O89     O    0.25040   0.52880   0.96720   1.000
    O90     O    0.13040   0.51320   0.96840   1.000
    C309    C    0.44010   0.52130   0.76650   1.000
    C310    C    0.44740   0.54520   0.80510   1.000
    H351    H    0.47510   0.58620   0.80960   1.000
    C311    C    0.41410   0.50900   0.83720   1.000
    C312    C    0.36600   0.42490   0.79190   1.000
    C313    C    0.39850   0.46130   0.75970   1.000
    H352    H    0.39230   0.44540   0.73310   1.000
    C314    C    0.41640   0.53120   0.88000   1.000
    H353    H    0.39760   0.49710   0.89860   1.000
    H354    H    0.45810   0.55740   0.88800   1.000
    H355    H    0.39510   0.55350   0.88120   1.000
    C315    C    0.32460   0.35930   0.78010   1.000
    H356    H    0.31560   0.35680   0.75110   1.000
    H357    H    0.34440   0.33630   0.78600   1.000
    H358    H    0.28760   0.34310   0.79570   1.000
    C316    C    0.37390   0.44960   0.83089   1.000
    C317    C    0.34090   0.41020   0.86560   1.000
    C318    C    0.35880   0.37320   0.88280   1.000
    H359    H    0.39220   0.37240   0.87150   1.000
    C319    C    0.33050   0.33760   0.91560   1.000
    C320    C    0.28110   0.33840   0.93100   1.000
    H360    H    0.25990   0.31290   0.95310   1.000
    C321    C    0.26200   0.37480   0.91540   1.000
    C322    C    0.29210   0.41070   0.88260   1.000
    H361    H    0.27910   0.43610   0.87150   1.000
    C323    C    0.35350   0.30090   0.93470   1.000
    C324    C    0.21270   0.38020   0.93440   1.000
    Co15    Co   0.16700   0.46300   0.95530   1.000
    C325    C    0.46430   0.53350   0.80540   1.000
    H362    H    0.50370   0.56540   0.80980   1.000
    C326    C    0.43060   0.49870   0.83800   1.000
    C327    C    0.34880   0.44030   0.79260   1.000
    C328    C    0.38190   0.47570   0.76040   1.000
    H363    H    0.36490   0.46880   0.73400   1.000
    C329    C    0.46110   0.51650   0.87970   1.000
    H364    H    0.43240   0.51410   0.90000   1.000
    H365    H    0.47560   0.48930   0.88720   1.000
    H366    H    0.49480   0.55740   0.87850   1.000
    C330    C    0.28540   0.39000   0.78670   1.000
    H367    H    0.25820   0.39820   0.80240   1.000
    H368    H    0.27500   0.38680   0.75790   1.000
    H369    H    0.28210   0.35250   0.79600   1.000
    H370    H    0.35340   0.60570   0.02730   1.000
    H371    H    0.36320   0.56940   0.99180   1.000
    H372    H    0.34930   0.62140   0.98090   1.000
    H373    H    0.07730   0.56630   0.02800   1.000
    H374    H    0.04800   0.53820   0.98500   1.000
    H375    H    0.11100   0.59870   0.98700   1.000
    Fe16    Fe   0.46520   0.29600   0.94830   1.000
    O91     O    0.31540   0.90910   0.92550   1.000
    O92     O    0.26160   0.94050   0.95858   1.000
    O93     O    0.33960   0.15960   0.95883   1.000
    O94     O    0.42340   0.21550   0.92442   1.000
    O95     O    0.52880   0.27840   0.96720   1.000
    O96     O    0.51320   0.38280   0.96840   1.000
    C331    C    0.52130   0.08120   0.76650   1.000
    C332    C    0.54520   0.09780   0.80510   1.000
    H376    H    0.58620   0.11110   0.80960   1.000
    C333    C    0.50900   0.09490   0.83720   1.000
    C334    C    0.42490   0.05890   0.79190   1.000
    C335    C    0.46130   0.06280   0.75970   1.000
    H377    H    0.44540   0.05310   0.73310   1.000
    C336    C    0.53120   0.11480   0.88000   1.000
    H378    H    0.49710   0.09950   0.89860   1.000
    H379    H    0.55740   0.09930   0.88800   1.000
    H380    H    0.55350   0.15840   0.88120   1.000
    C337    C    0.35930   0.03470   0.78010   1.000
    H381    H    0.35680   0.04120   0.75110   1.000
    H382    H    0.33630   0.99190   0.78600   1.000
    H383    H    0.34310   0.05550   0.79570   1.000
    C338    C    0.44960   0.07570   0.83089   1.000
    C339    C    0.41020   0.06930   0.86560   1.000
    C340    C    0.37320   0.01440   0.88280   1.000
    H384    H    0.37240   0.98020   0.87150   1.000
    C341    C    0.33760   0.00710   0.91560   1.000
    C342    C    0.33840   0.05730   0.93100   1.000
    H385    H    0.31290   0.05300   0.95310   1.000
    C343    C    0.37480   0.11280   0.91540   1.000
    C344    C    0.41070   0.11860   0.88260   1.000
    H386    H    0.43610   0.15700   0.87150   1.000
    C345    C    0.30090   0.94740   0.93470   1.000
    C346    C    0.38020   0.16750   0.93440   1.000
    Co16    Co   0.46300   0.29600   0.95530   1.000
    C347    C    0.53350   0.06920   0.80540   1.000
    H387    H    0.56540   0.06170   0.80980   1.000
    C348    C    0.49870   0.06810   0.83800   1.000
    C349    C    0.44030   0.09150   0.79260   1.000
    C350    C    0.47570   0.09380   0.76040   1.000
    H388    H    0.46880   0.10390   0.73400   1.000
    C351    C    0.51650   0.05540   0.87970   1.000
    H389    H    0.51410   0.08170   0.90000   1.000
    H390    H    0.48930   0.01370   0.88720   1.000
    H391    H    0.55740   0.06260   0.87850   1.000
    C352    C    0.39000   0.10460   0.78670   1.000
    H392    H    0.39820   0.14000   0.80240   1.000
    H393    H    0.38680   0.11180   0.75790   1.000
    H394    H    0.35250   0.07040   0.79600   1.000
    H395    H    0.60570   0.25230   0.02730   1.000
    H396    H    0.56940   0.20620   0.99180   1.000
    H397    H    0.62140   0.27210   0.98090   1.000
    H398    H    0.56630   0.48900   0.02800   1.000
    H399    H    0.53820   0.49020   0.98500   1.000
    H400    H    0.59870   0.48770   0.98700   1.000
    Fe17    Fe   0.70400   0.16920   0.94830   1.000
    O97     O    0.09090   0.40630   0.92550   1.000
    O98     O    0.05950   0.32110   0.95858   1.000
    O99     O    0.84040   0.18000   0.95883   1.000
    O100    O    0.78450   0.20790   0.92442   1.000
    O101    O    0.72160   0.25040   0.96720   1.000
    O102    O    0.61720   0.13040   0.96840   1.000
    C353    C    0.91880   0.44010   0.76650   1.000
    C354    C    0.90220   0.44740   0.80510   1.000
    H401    H    0.88890   0.47510   0.80960   1.000
    C355    C    0.90510   0.41410   0.83720   1.000
    C356    C    0.94110   0.36600   0.79190   1.000
    C357    C    0.93720   0.39850   0.75970   1.000
    H402    H    0.94690   0.39230   0.73310   1.000
    C358    C    0.88520   0.41640   0.88000   1.000
    H403    H    0.90050   0.39760   0.89860   1.000
    H404    H    0.90070   0.45810   0.88800   1.000
    H405    H    0.84160   0.39510   0.88120   1.000
    C359    C    0.96530   0.32460   0.78010   1.000
    H406    H    0.95880   0.31560   0.75110   1.000
    H407    H    0.00810   0.34440   0.78600   1.000
    H408    H    0.94450   0.28760   0.79570   1.000
    C360    C    0.92430   0.37390   0.83089   1.000
    C361    C    0.93070   0.34090   0.86560   1.000
    C362    C    0.98560   0.35880   0.88280   1.000
    H409    H    0.01980   0.39220   0.87150   1.000
    C363    C    0.99290   0.33050   0.91560   1.000
    C364    C    0.94270   0.28110   0.93100   1.000
    H410    H    0.94700   0.25990   0.95310   1.000
    C365    C    0.88720   0.26200   0.91540   1.000
    C366    C    0.88140   0.29210   0.88260   1.000
    H411    H    0.84300   0.27910   0.87150   1.000
    C367    C    0.05260   0.35350   0.93470   1.000
    C368    C    0.83250   0.21270   0.93440   1.000
    Co17    Co   0.70400   0.16700   0.95530   1.000
    C369    C    0.93080   0.46430   0.80540   1.000
    H412    H    0.93830   0.50370   0.80980   1.000
    C370    C    0.93190   0.43060   0.83800   1.000
    C371    C    0.90850   0.34880   0.79260   1.000
    C372    C    0.90620   0.38190   0.76040   1.000
    H413    H    0.89610   0.36490   0.73400   1.000
    C373    C    0.94460   0.46110   0.87970   1.000
    H414    H    0.91830   0.43240   0.90000   1.000
    H415    H    0.98630   0.47560   0.88720   1.000
    H416    H    0.93740   0.49480   0.87850   1.000
    C374    C    0.89540   0.28540   0.78670   1.000
    H417    H    0.86000   0.25820   0.80240   1.000
    H418    H    0.88820   0.27500   0.75790   1.000
    H419    H    0.92960   0.28210   0.79600   1.000
    H420    H    0.74770   0.35340   0.02730   1.000
    H421    H    0.79380   0.36320   0.99180   1.000
    H422    H    0.72790   0.34930   0.98090   1.000
    H423    H    0.51100   0.07730   0.02800   1.000
    H424    H    0.50980   0.04800   0.98500   1.000
    H425    H    0.51230   0.11100   0.98700   1.000
    Fe18    Fe   0.83080   0.53480   0.94830   1.000
    O103    O    0.59370   0.68460   0.92550   1.000
    O104    O    0.67890   0.73840   0.95858   1.000
    O105    O    0.82000   0.66040   0.95883   1.000
    O106    O    0.79210   0.57660   0.92442   1.000
    O107    O    0.74960   0.47120   0.96720   1.000
    O108    O    0.86960   0.48680   0.96840   1.000
    C375    C    0.55990   0.47870   0.76650   1.000
    C376    C    0.55260   0.45480   0.80510   1.000
    H426    H    0.52490   0.41380   0.80960   1.000
    C377    C    0.58590   0.49100   0.83720   1.000
    C378    C    0.63400   0.57510   0.79190   1.000
    C379    C    0.60150   0.53870   0.75970   1.000
    H427    H    0.60770   0.55460   0.73310   1.000
    C380    C    0.58360   0.46880   0.88000   1.000
    H428    H    0.60240   0.50290   0.89860   1.000
    H429    H    0.54190   0.44260   0.88800   1.000
    H430    H    0.60490   0.44650   0.88120   1.000
    C381    C    0.67540   0.64070   0.78010   1.000
    H431    H    0.68440   0.64320   0.75110   1.000
    H432    H    0.65560   0.66370   0.78600   1.000
    H433    H    0.71240   0.65690   0.79570   1.000
    C382    C    0.62610   0.55040   0.83089   1.000
    C383    C    0.65910   0.58980   0.86560   1.000
    C384    C    0.64120   0.62680   0.88280   1.000
    H434    H    0.60780   0.62760   0.87150   1.000
    C385    C    0.66950   0.66240   0.91560   1.000
    C386    C    0.71890   0.66160   0.93100   1.000
    H435    H    0.74010   0.68710   0.95310   1.000
    C387    C    0.73800   0.62520   0.91540   1.000
    C388    C    0.70790   0.58930   0.88260   1.000
    H436    H    0.72090   0.56390   0.87150   1.000
    C389    C    0.64650   0.69910   0.93470   1.000
    C390    C    0.78730   0.61980   0.93440   1.000
    Co18    Co   0.83300   0.53700   0.95530   1.000
    C391    C    0.53570   0.46650   0.80540   1.000
    H437    H    0.49630   0.43460   0.80980   1.000
    C392    C    0.56940   0.50130   0.83800   1.000
    C393    C    0.65120   0.55970   0.79260   1.000
    C394    C    0.61810   0.52430   0.76040   1.000
    H438    H    0.63510   0.53120   0.73400   1.000
    C395    C    0.53890   0.48350   0.87970   1.000
    H439    H    0.56760   0.48590   0.90000   1.000
    H440    H    0.52440   0.51070   0.88720   1.000
    H441    H    0.50520   0.44260   0.87850   1.000
    C396    C    0.71460   0.61000   0.78670   1.000
    H442    H    0.74180   0.60180   0.80240   1.000
    H443    H    0.72500   0.61320   0.75790   1.000
    H444    H    0.71790   0.64750   0.79600   1.000
    H445    H    0.64660   0.39430   0.02730   1.000
    H446    H    0.63680   0.43060   0.99180   1.000
    H447    H    0.65070   0.37860   0.98090   1.000
    H448    H    0.92270   0.43370   0.02800   1.000
    H449    H    0.95200   0.46180   0.98500   1.000
    H450    H    0.88900   0.40130   0.98700   1.000
    Fe19    Fe   0.70400   0.53480   0.55170   1.000
    O109    O    0.09090   0.68460   0.57450   1.000
    O110    O    0.05950   0.73840   0.54142   1.000
    O111    O    0.84040   0.66040   0.54117   1.000
    O112    O    0.78450   0.57660   0.57558   1.000
    O113    O    0.72160   0.47120   0.53280   1.000
    O114    O    0.61720   0.48680   0.53160   1.000
    C397    C    0.91880   0.47870   0.73350   1.000
    C398    C    0.90220   0.45480   0.69490   1.000
    H451    H    0.88890   0.41380   0.69040   1.000
    C399    C    0.90510   0.49100   0.66280   1.000
    C400    C    0.94110   0.57510   0.70810   1.000
    C401    C    0.93720   0.53870   0.74030   1.000
    H452    H    0.94690   0.55460   0.76690   1.000
    C402    C    0.88520   0.46880   0.62000   1.000
    H453    H    0.90050   0.50290   0.60140   1.000
    H454    H    0.90070   0.44260   0.61200   1.000
    H455    H    0.84160   0.44650   0.61880   1.000
    C403    C    0.96530   0.64070   0.71990   1.000
    H456    H    0.95880   0.64320   0.74890   1.000
    H457    H    0.00810   0.66370   0.71400   1.000
    H458    H    0.94450   0.65690   0.70430   1.000
    C404    C    0.92430   0.55040   0.66911   1.000
    C405    C    0.93070   0.58980   0.63440   1.000
    C406    C    0.98560   0.62680   0.61720   1.000
    H459    H    0.01980   0.62760   0.62850   1.000
    C407    C    0.99290   0.66240   0.58440   1.000
    C408    C    0.94270   0.66160   0.56900   1.000
    H460    H    0.94700   0.68710   0.54690   1.000
    C409    C    0.88720   0.62520   0.58460   1.000
    C410    C    0.88140   0.58930   0.61740   1.000
    H461    H    0.84300   0.56390   0.62850   1.000
    C411    C    0.05260   0.69910   0.56530   1.000
    C412    C    0.83250   0.61980   0.56560   1.000
    Co19    Co   0.70400   0.53700   0.54470   1.000
    C413    C    0.93080   0.46650   0.69460   1.000
    H462    H    0.93830   0.43460   0.69020   1.000
    C414    C    0.93190   0.50130   0.66200   1.000
    C415    C    0.90850   0.55970   0.70740   1.000
    C416    C    0.90620   0.52430   0.73960   1.000
    H463    H    0.89610   0.53120   0.76600   1.000
    C417    C    0.94460   0.48350   0.62030   1.000
    H464    H    0.91830   0.48590   0.60000   1.000
    H465    H    0.98630   0.51070   0.61280   1.000
    H466    H    0.93740   0.44260   0.62150   1.000
    C418    C    0.89540   0.61000   0.71330   1.000
    H467    H    0.86000   0.60180   0.69760   1.000
    H468    H    0.88820   0.61320   0.74210   1.000
    H469    H    0.92960   0.64750   0.70400   1.000
    H470    H    0.74770   0.39430   0.47270   1.000
    H471    H    0.79380   0.43060   0.50820   1.000
    H472    H    0.72790   0.37860   0.51910   1.000
    H473    H    0.51100   0.43370   0.47200   1.000
    H474    H    0.50980   0.46180   0.51500   1.000
    H475    H    0.51230   0.40130   0.51300   1.000
    Fe20    Fe   0.83080   0.29600   0.55170   1.000
    O115    O    0.59370   0.90910   0.57450   1.000
    O116    O    0.67890   0.94050   0.54142   1.000
    O117    O    0.82000   0.15960   0.54117   1.000
    O118    O    0.79210   0.21550   0.57558   1.000
    O119    O    0.74960   0.27840   0.53280   1.000
    O120    O    0.86960   0.38280   0.53160   1.000
    C419    C    0.55990   0.08120   0.73350   1.000
    C420    C    0.55260   0.09780   0.69490   1.000
    H476    H    0.52490   0.11110   0.69040   1.000
    C421    C    0.58590   0.09490   0.66280   1.000
    C422    C    0.63400   0.05890   0.70810   1.000
    C423    C    0.60150   0.06280   0.74030   1.000
    H477    H    0.60770   0.05310   0.76690   1.000
    C424    C    0.58360   0.11480   0.62000   1.000
    H478    H    0.60240   0.09950   0.60140   1.000
    H479    H    0.54190   0.09930   0.61200   1.000
    H480    H    0.60490   0.15840   0.61880   1.000
    C425    C    0.67540   0.03470   0.71990   1.000
    H481    H    0.68440   0.04120   0.74890   1.000
    H482    H    0.65560   0.99190   0.71400   1.000
    H483    H    0.71240   0.05550   0.70430   1.000
    C426    C    0.62610   0.07570   0.66911   1.000
    C427    C    0.65910   0.06930   0.63440   1.000
    C428    C    0.64120   0.01440   0.61720   1.000
    H484    H    0.60780   0.98020   0.62850   1.000
    C429    C    0.66950   0.00710   0.58440   1.000
    C430    C    0.71890   0.05730   0.56900   1.000
    H485    H    0.74010   0.05300   0.54690   1.000
    C431    C    0.73800   0.11280   0.58460   1.000
    C432    C    0.70790   0.11860   0.61740   1.000
    H486    H    0.72090   0.15700   0.62850   1.000
    C433    C    0.64650   0.94740   0.56530   1.000
    C434    C    0.78730   0.16750   0.56560   1.000
    Co20    Co   0.83300   0.29600   0.54470   1.000
    C435    C    0.53570   0.06920   0.69460   1.000
    H487    H    0.49630   0.06170   0.69020   1.000
    C436    C    0.56940   0.06810   0.66200   1.000
    C437    C    0.65120   0.09150   0.70740   1.000
    C438    C    0.61810   0.09380   0.73960   1.000
    H488    H    0.63510   0.10390   0.76600   1.000
    C439    C    0.53890   0.05540   0.62030   1.000
    H489    H    0.56760   0.08170   0.60000   1.000
    H490    H    0.52440   0.01370   0.61280   1.000
    H491    H    0.50520   0.06260   0.62150   1.000
    C440    C    0.71460   0.10460   0.71330   1.000
    H492    H    0.74180   0.14000   0.69760   1.000
    H493    H    0.72500   0.11180   0.74210   1.000
    H494    H    0.71790   0.07040   0.70400   1.000
    H495    H    0.64660   0.25230   0.47270   1.000
    H496    H    0.63680   0.20620   0.50820   1.000
    H497    H    0.65070   0.27210   0.51910   1.000
    H498    H    0.92270   0.48900   0.47200   1.000
    H499    H    0.95200   0.49020   0.51500   1.000
    H500    H    0.88900   0.48770   0.51300   1.000
    Fe21    Fe   0.46520   0.16920   0.55170   1.000
    O121    O    0.31540   0.40630   0.57450   1.000
    O122    O    0.26160   0.32110   0.54142   1.000
    O123    O    0.33960   0.18000   0.54117   1.000
    O124    O    0.42340   0.20790   0.57558   1.000
    O125    O    0.52880   0.25040   0.53280   1.000
    O126    O    0.51320   0.13040   0.53160   1.000
    C441    C    0.52130   0.44010   0.73350   1.000
    C442    C    0.54520   0.44740   0.69490   1.000
    H501    H    0.58620   0.47510   0.69040   1.000
    C443    C    0.50900   0.41410   0.66280   1.000
    C444    C    0.42490   0.36600   0.70810   1.000
    C445    C    0.46130   0.39850   0.74030   1.000
    H502    H    0.44540   0.39230   0.76690   1.000
    C446    C    0.53120   0.41640   0.62000   1.000
    H503    H    0.49710   0.39760   0.60140   1.000
    H504    H    0.55740   0.45810   0.61200   1.000
    H505    H    0.55350   0.39510   0.61880   1.000
    C447    C    0.35930   0.32460   0.71990   1.000
    H506    H    0.35680   0.31560   0.74890   1.000
    H507    H    0.33630   0.34440   0.71400   1.000
    H508    H    0.34310   0.28760   0.70430   1.000
    C448    C    0.44960   0.37390   0.66911   1.000
    C449    C    0.41020   0.34090   0.63440   1.000
    C450    C    0.37320   0.35880   0.61720   1.000
    H509    H    0.37240   0.39220   0.62850   1.000
    C451    C    0.33760   0.33050   0.58440   1.000
    C452    C    0.33840   0.28110   0.56900   1.000
    H510    H    0.31290   0.25990   0.54690   1.000
    C453    C    0.37480   0.26200   0.58460   1.000
    C454    C    0.41070   0.29210   0.61740   1.000
    H511    H    0.43610   0.27910   0.62850   1.000
    C455    C    0.30090   0.35350   0.56530   1.000
    C456    C    0.38020   0.21270   0.56560   1.000
    Co21    Co   0.46300   0.16700   0.54470   1.000
    C457    C    0.53350   0.46430   0.69460   1.000
    H512    H    0.56540   0.50370   0.69020   1.000
    C458    C    0.49870   0.43060   0.66200   1.000
    C459    C    0.44030   0.34880   0.70740   1.000
    C460    C    0.47570   0.38190   0.73960   1.000
    H513    H    0.46880   0.36490   0.76600   1.000
    C461    C    0.51650   0.46110   0.62030   1.000
    H514    H    0.51410   0.43240   0.60000   1.000
    H515    H    0.48930   0.47560   0.61280   1.000
    H516    H    0.55740   0.49480   0.62150   1.000
    C462    C    0.39000   0.28540   0.71330   1.000
    H517    H    0.39820   0.25820   0.69760   1.000
    H518    H    0.38680   0.27500   0.74210   1.000
    H519    H    0.35250   0.28210   0.70400   1.000
    H520    H    0.60570   0.35340   0.47270   1.000
    H521    H    0.56940   0.36320   0.50820   1.000
    H522    H    0.62140   0.34930   0.51910   1.000
    H523    H    0.56630   0.07730   0.47200   1.000
    H524    H    0.53820   0.04800   0.51500   1.000
    H525    H    0.59870   0.11100   0.51300   1.000
    Fe22    Fe   0.29600   0.46520   0.55170   1.000
    O127    O    0.90910   0.31540   0.57450   1.000
    O128    O    0.94050   0.26160   0.54142   1.000
    O129    O    0.15960   0.33960   0.54117   1.000
    O130    O    0.21550   0.42340   0.57558   1.000
    O131    O    0.27840   0.52880   0.53280   1.000
    O132    O    0.38280   0.51320   0.53160   1.000
    C463    C    0.08120   0.52130   0.73350   1.000
    C464    C    0.09780   0.54520   0.69490   1.000
    H526    H    0.11110   0.58620   0.69040   1.000
    C465    C    0.09490   0.50900   0.66280   1.000
    C466    C    0.05890   0.42490   0.70810   1.000
    C467    C    0.06280   0.46130   0.74030   1.000
    H527    H    0.05310   0.44540   0.76690   1.000
    C468    C    0.11480   0.53120   0.62000   1.000
    H528    H    0.09950   0.49710   0.60140   1.000
    H529    H    0.09930   0.55740   0.61200   1.000
    H530    H    0.15840   0.55350   0.61880   1.000
    C469    C    0.03470   0.35930   0.71990   1.000
    H531    H    0.04120   0.35680   0.74890   1.000
    H532    H    0.99190   0.33630   0.71400   1.000
    H533    H    0.05550   0.34310   0.70430   1.000
    C470    C    0.07570   0.44960   0.66911   1.000
    C471    C    0.06930   0.41020   0.63440   1.000
    C472    C    0.01440   0.37320   0.61720   1.000
    H534    H    0.98020   0.37240   0.62850   1.000
    C473    C    0.00710   0.33760   0.58440   1.000
    C474    C    0.05730   0.33840   0.56900   1.000
    H535    H    0.05300   0.31290   0.54690   1.000
    C475    C    0.11280   0.37480   0.58460   1.000
    C476    C    0.11860   0.41070   0.61740   1.000
    H536    H    0.15700   0.43610   0.62850   1.000
    C477    C    0.94740   0.30090   0.56530   1.000
    C478    C    0.16750   0.38020   0.56560   1.000
    Co22    Co   0.29600   0.46300   0.54470   1.000
    C479    C    0.06920   0.53350   0.69460   1.000
    H537    H    0.06170   0.56540   0.69020   1.000
    C480    C    0.06810   0.49870   0.66200   1.000
    C481    C    0.09150   0.44030   0.70740   1.000
    C482    C    0.09380   0.47570   0.73960   1.000
    H538    H    0.10390   0.46880   0.76600   1.000
    C483    C    0.05540   0.51650   0.62030   1.000
    H539    H    0.08170   0.51410   0.60000   1.000
    H540    H    0.01370   0.48930   0.61280   1.000
    H541    H    0.06260   0.55740   0.62150   1.000
    C484    C    0.10460   0.39000   0.71330   1.000
    H542    H    0.14000   0.39820   0.69760   1.000
    H543    H    0.11180   0.38680   0.74210   1.000
    H544    H    0.07040   0.35250   0.70400   1.000
    H545    H    0.25230   0.60570   0.47270   1.000
    H546    H    0.20620   0.56940   0.50820   1.000
    H547    H    0.27210   0.62140   0.51910   1.000
    H548    H    0.48900   0.56630   0.47200   1.000
    H549    H    0.49020   0.53820   0.51500   1.000
    H550    H    0.48770   0.59870   0.51300   1.000
    Fe23    Fe   0.16920   0.70400   0.55170   1.000
    O133    O    0.40630   0.09090   0.57450   1.000
    O134    O    0.32110   0.05950   0.54142   1.000
    O135    O    0.18000   0.84040   0.54117   1.000
    O136    O    0.20790   0.78450   0.57558   1.000
    O137    O    0.25040   0.72160   0.53280   1.000
    O138    O    0.13040   0.61720   0.53160   1.000
    C485    C    0.44010   0.91880   0.73350   1.000
    C486    C    0.44740   0.90220   0.69490   1.000
    H551    H    0.47510   0.88890   0.69040   1.000
    C487    C    0.41410   0.90510   0.66280   1.000
    C488    C    0.36600   0.94110   0.70810   1.000
    C489    C    0.39850   0.93720   0.74030   1.000
    H552    H    0.39230   0.94690   0.76690   1.000
    C490    C    0.41640   0.88520   0.62000   1.000
    H553    H    0.39760   0.90050   0.60140   1.000
    H554    H    0.45810   0.90070   0.61200   1.000
    H555    H    0.39510   0.84160   0.61880   1.000
    C491    C    0.32460   0.96530   0.71990   1.000
    H556    H    0.31560   0.95880   0.74890   1.000
    H557    H    0.34440   0.00810   0.71400   1.000
    H558    H    0.28760   0.94450   0.70430   1.000
    C492    C    0.37390   0.92430   0.66911   1.000
    C493    C    0.34090   0.93070   0.63440   1.000
    C494    C    0.35880   0.98560   0.61720   1.000
    H559    H    0.39220   0.01980   0.62850   1.000
    C495    C    0.33050   0.99290   0.58440   1.000
    C496    C    0.28110   0.94270   0.56900   1.000
    H560    H    0.25990   0.94700   0.54690   1.000
    C497    C    0.26200   0.88720   0.58460   1.000
    C498    C    0.29210   0.88140   0.61740   1.000
    H561    H    0.27910   0.84300   0.62850   1.000
    C499    C    0.35350   0.05260   0.56530   1.000
    C500    C    0.21270   0.83250   0.56560   1.000
    Co23    Co   0.16700   0.70400   0.54470   1.000
    C501    C    0.46430   0.93080   0.69460   1.000
    H562    H    0.50370   0.93830   0.69020   1.000
    C502    C    0.43060   0.93190   0.66200   1.000
    C503    C    0.34880   0.90850   0.70740   1.000
    C504    C    0.38190   0.90620   0.73960   1.000
    H563    H    0.36490   0.89610   0.76600   1.000
    C505    C    0.46110   0.94460   0.62030   1.000
    H564    H    0.43240   0.91830   0.60000   1.000
    H565    H    0.47560   0.98630   0.61280   1.000
    H566    H    0.49480   0.93740   0.62150   1.000
    C506    C    0.28540   0.89540   0.71330   1.000
    H567    H    0.25820   0.86000   0.69760   1.000
    H568    H    0.27500   0.88820   0.74210   1.000
    H569    H    0.28210   0.92960   0.70400   1.000
    H570    H    0.35340   0.74770   0.47270   1.000
    H571    H    0.36320   0.79380   0.50820   1.000
    H572    H    0.34930   0.72790   0.51910   1.000
    H573    H    0.07730   0.51100   0.47200   1.000
    H574    H    0.04800   0.50980   0.51500   1.000
    H575    H    0.11100   0.51230   0.51300   1.000
    Fe24    Fe   0.53480   0.83080   0.55170   1.000
    O139    O    0.68460   0.59370   0.57450   1.000
    O140    O    0.73840   0.67890   0.54142   1.000
    O141    O    0.66040   0.82000   0.54117   1.000
    O142    O    0.57660   0.79210   0.57558   1.000
    O143    O    0.47120   0.74960   0.53280   1.000
    O144    O    0.48680   0.86960   0.53160   1.000
    C507    C    0.47870   0.55990   0.73350   1.000
    C508    C    0.45480   0.55260   0.69490   1.000
    H576    H    0.41380   0.52490   0.69040   1.000
    C509    C    0.49100   0.58590   0.66280   1.000
    C510    C    0.57510   0.63400   0.70810   1.000
    C511    C    0.53870   0.60150   0.74030   1.000
    H577    H    0.55460   0.60770   0.76690   1.000
    C512    C    0.46880   0.58360   0.62000   1.000
    H578    H    0.50290   0.60240   0.60140   1.000
    H579    H    0.44260   0.54190   0.61200   1.000
    H580    H    0.44650   0.60490   0.61880   1.000
    C513    C    0.64070   0.67540   0.71990   1.000
    H581    H    0.64320   0.68440   0.74890   1.000
    H582    H    0.66370   0.65560   0.71400   1.000
    H583    H    0.65690   0.71240   0.70430   1.000
    C514    C    0.55040   0.62610   0.66911   1.000
    C515    C    0.58980   0.65910   0.63440   1.000
    C516    C    0.62680   0.64120   0.61720   1.000
    H584    H    0.62760   0.60780   0.62850   1.000
    C517    C    0.66240   0.66950   0.58440   1.000
    C518    C    0.66160   0.71890   0.56900   1.000
    H585    H    0.68710   0.74010   0.54690   1.000
    C519    C    0.62520   0.73800   0.58460   1.000
    C520    C    0.58930   0.70790   0.61740   1.000
    H586    H    0.56390   0.72090   0.62850   1.000
    C521    C    0.69910   0.64650   0.56530   1.000
    C522    C    0.61980   0.78730   0.56560   1.000
    Co24    Co   0.53700   0.83300   0.54470   1.000
    C523    C    0.46650   0.53570   0.69460   1.000
    H587    H    0.43460   0.49630   0.69020   1.000
    C524    C    0.50130   0.56940   0.66200   1.000
    C525    C    0.55970   0.65120   0.70740   1.000
    C526    C    0.52430   0.61810   0.73960   1.000
    H588    H    0.53120   0.63510   0.76600   1.000
    C527    C    0.48350   0.53890   0.62030   1.000
    H589    H    0.48590   0.56760   0.60000   1.000
    H590    H    0.51070   0.52440   0.61280   1.000
    H591    H    0.44260   0.50520   0.62150   1.000
    C528    C    0.61000   0.71460   0.71330   1.000
    H592    H    0.60180   0.74180   0.69760   1.000
    H593    H    0.61320   0.72500   0.74210   1.000
    H594    H    0.64750   0.71790   0.70400   1.000
    H595    H    0.39430   0.64660   0.47270   1.000
    H596    H    0.43060   0.63680   0.50820   1.000
    H597    H    0.37860   0.65070   0.51910   1.000
    H598    H    0.43370   0.92270   0.47200   1.000
    H599    H    0.46180   0.95200   0.51500   1.000
    H600    H    0.40130   0.88900   0.51300   1.000
    Fe25    Fe   0.33600   0.21400   0.00000   1.000
    O145    O    0.24500   0.15690   0.00000   1.000
    O146    O    0.42120   0.26840   0.00000   1.000
    C529    C    0.54420   0.26950   0.00000   1.000
    C530    C    0.58920   0.24810   0.00000   1.000
    C531    C    0.52480   0.40790   0.00000   1.000
    C532    C    0.56000   0.47440   0.00000   1.000
    Co25    Co   0.33900   0.21700   0.00000   1.000
    Fe26    Fe   0.78600   0.12200   0.00000   1.000
    O147    O    0.84310   0.08810   0.00000   1.000
    O148    O    0.73160   0.15280   0.00000   1.000
    C533    C    0.73050   0.27470   0.00000   1.000
    C534    C    0.75190   0.34110   0.00000   1.000
    C535    C    0.59210   0.11690   0.00000   1.000
    C536    C    0.52560   0.08560   0.00000   1.000
    Co26    Co   0.78300   0.12200   0.00000   1.000
    Fe27    Fe   0.87800   0.66400   0.00000   1.000
    O149    O    0.91190   0.75500   0.00000   1.000
    O150    O    0.84720   0.57880   0.00000   1.000
    C537    C    0.72530   0.45580   0.00000   1.000
    C538    C    0.65890   0.41080   0.00000   1.000
    C539    C    0.88310   0.47520   0.00000   1.000
    C540    C    0.91440   0.44000   0.00000   1.000
    Co27    Co   0.87800   0.66100   0.00000   1.000
    Fe28    Fe   0.66400   0.78600   0.00000   1.000
    O151    O    0.75500   0.84310   0.00000   1.000
    O152    O    0.57880   0.73160   0.00000   1.000
    C541    C    0.45580   0.73050   0.00000   1.000
    C542    C    0.41080   0.75190   0.00000   1.000
    C543    C    0.47520   0.59210   0.00000   1.000
    C544    C    0.44000   0.52560   0.00000   1.000
    Co28    Co   0.66100   0.78300   0.00000   1.000
    Fe29    Fe   0.21400   0.87800   0.00000   1.000
    O153    O    0.15690   0.91190   0.00000   1.000
    O154    O    0.26840   0.84720   0.00000   1.000
    C545    C    0.26950   0.72530   0.00000   1.000
    C546    C    0.24810   0.65890   0.00000   1.000
    C547    C    0.40790   0.88310   0.00000   1.000
    C548    C    0.47440   0.91440   0.00000   1.000
    Co29    Co   0.21700   0.87800   0.00000   1.000
    Fe30    Fe   0.12200   0.33600   0.00000   1.000
    O155    O    0.08810   0.24500   0.00000   1.000
    O156    O    0.15280   0.42120   0.00000   1.000
    C549    C    0.27470   0.54420   0.00000   1.000
    C550    C    0.34110   0.58920   0.00000   1.000
    C551    C    0.11690   0.52480   0.00000   1.000
    C552    C    0.08560   0.56000   0.00000   1.000
    Co30    Co   0.12200   0.33900   0.00000   1.000
    Fe31    Fe   0.21400   0.33600   0.50000   1.000
    O157    O    0.15690   0.24500   0.50000   1.000
    O158    O    0.26840   0.42120   0.50000   1.000
    C553    C    0.26950   0.54420   0.50000   1.000
    C554    C    0.24810   0.58920   0.50000   1.000
    C555    C    0.40790   0.52480   0.50000   1.000
    C556    C    0.47440   0.56000   0.50000   1.000
    Co31    Co   0.21700   0.33900   0.50000   1.000
    Fe32    Fe   0.12200   0.78600   0.50000   1.000
    O159    O    0.08810   0.84310   0.50000   1.000
    O160    O    0.15280   0.73160   0.50000   1.000
    C557    C    0.27470   0.73050   0.50000   1.000
    C558    C    0.34110   0.75190   0.50000   1.000
    C559    C    0.11690   0.59210   0.50000   1.000
    C560    C    0.08560   0.52560   0.50000   1.000
    Co32    Co   0.12200   0.78300   0.50000   1.000
    Fe33    Fe   0.66400   0.87800   0.50000   1.000
    O161    O    0.75500   0.91190   0.50000   1.000
    O162    O    0.57880   0.84720   0.50000   1.000
    C561    C    0.45580   0.72530   0.50000   1.000
    C562    C    0.41080   0.65890   0.50000   1.000
    C563    C    0.47520   0.88310   0.50000   1.000
    C564    C    0.44000   0.91440   0.50000   1.000
    Co33    Co   0.66100   0.87800   0.50000   1.000
    Fe34    Fe   0.78600   0.66400   0.50000   1.000
    O163    O    0.84310   0.75500   0.50000   1.000
    O164    O    0.73160   0.57880   0.50000   1.000
    C565    C    0.73050   0.45580   0.50000   1.000
    C566    C    0.75190   0.41080   0.50000   1.000
    C567    C    0.59210   0.47520   0.50000   1.000
    C568    C    0.52560   0.44000   0.50000   1.000
    Co34    Co   0.78300   0.66100   0.50000   1.000
    Fe35    Fe   0.87800   0.21400   0.50000   1.000
    O165    O    0.91190   0.15690   0.50000   1.000
    O166    O    0.84720   0.26840   0.50000   1.000
    C569    C    0.72530   0.26950   0.50000   1.000
    C570    C    0.65890   0.24810   0.50000   1.000
    C571    C    0.88310   0.40790   0.50000   1.000
    C572    C    0.91440   0.47440   0.50000   1.000
    Co35    Co   0.87800   0.21700   0.50000   1.000
    Fe36    Fe   0.33600   0.12200   0.50000   1.000
    O167    O    0.24500   0.08810   0.50000   1.000
    O168    O    0.42120   0.15280   0.50000   1.000
    C573    C    0.54420   0.27470   0.50000   1.000
    C574    C    0.58920   0.34110   0.50000   1.000
    C575    C    0.52480   0.11690   0.50000   1.000
    C576    C    0.56000   0.08560   0.50000   1.000
    Co36    Co   0.33900   0.12200   0.50000   1.000
