# CIF file generated by openbabel 2.4.1, see http://openbabel.sf.net
data_I
_chemical_name_common 'image0'
_cell_length_a 12.398
_cell_length_b 33.496
_cell_length_c 12.868
_cell_angle_alpha 90
_cell_angle_beta 96.64
_cell_angle_gamma 90
_space_group_name_H-M_alt 'P 1'
_space_group_name_Hall 'P 1'
loop_
    _symmetry_equiv_pos_as_xyz
    x,y,z
loop_
    _atom_site_label
    _atom_site_type_symbol
    _atom_site_fract_x
    _atom_site_fract_y
    _atom_site_fract_z
    _atom_site_occupancy
    Fe1     Fe   0.69786   0.06952   0.60443   1.000
    C1      C    0.79150   0.15021   0.73260   1.000
    H1      H    0.73170   0.15670   0.67730   1.000
    H2      H    0.81640   0.17540   0.76790   1.000
    N1      N    0.69650   0.08985   0.77170   1.000
    N2      N    0.75150   0.12308   0.80870   1.000
    C2      C    0.75800   0.12560   0.91250   1.000
    C3      C    0.70390   0.09340   0.94680   1.000
    C4      C    0.66730   0.07123   0.85630   1.000
    C5      C    0.60670   0.03280   0.84670   1.000
    H3      H    0.55610   0.03300   0.78230   1.000
    H4      H    0.56600   0.02950   0.90700   1.000
    H5      H    0.65810   0.01070   0.84440   1.000
    C6      C    0.81620   0.16030   0.97200   1.000
    H6      H    0.79330   0.18550   0.93770   1.000
    H7      H    0.89490   0.15710   0.97250   1.000
    H8      H    0.79800   0.16050   0.04410   1.000
    C7      C    0.69080   0.08320   0.05650   1.000
    C8      C    0.67850   0.11110   0.12810   1.000
    H9      H    0.67920   0.13840   0.10760   1.000
    C9      C    0.76430   0.08970   0.12890   1.000
    H10     H    0.82790   0.10370   0.11550   1.000
    C10     C    0.66460   0.10230   0.23170   1.000
    H11     H    0.65520   0.12310   0.28010   1.000
    C11     C    0.75300   0.07640   0.22960   1.000
    H12     H    0.81610   0.07740   0.27910   1.000
    C12     C    0.66460   0.06257   0.26300   1.000
    C13     C    0.68650   0.03340   0.19790   1.000
    H13     H    0.69070   0.00650   0.22170   1.000
    C14     C    0.56770   0.05950   0.17910   1.000
    H14     H    0.49980   0.05020   0.19680   1.000
    C15     C    0.70330   0.04230   0.09400   1.000
    H15     H    0.72280   0.02180   0.04880   1.000
    C16     C    0.57900   0.07050   0.07560   1.000
    H16     H    0.52000   0.06980   0.02160   1.000
    C17     C    0.65130   0.05323   0.37350   1.000
    O1      O    0.69500   0.07557   0.44310   1.000
    O2      O    0.60240   0.02273   0.39320   1.000
    N3      N    0.85810   0.10005   0.62370   1.000
    N4      N    0.88080   0.13215   0.68530   1.000
    C18     C    0.98690   0.14015   0.69910   1.000
    C19     C    0.03710   0.11200   0.64300   1.000
    C20     C    0.95180   0.08719   0.59770   1.000
    C21     C    0.03500   0.17490   0.76220   1.000
    H17     H    0.11120   0.17820   0.75020   1.000
    H18     H    0.03090   0.16990   0.83660   1.000
    H19     H    0.99450   0.19920   0.74080   1.000
    C22     C    0.96010   0.05210   0.52840   1.000
    H20     H    0.96890   0.02780   0.57080   1.000
    H21     H    0.02300   0.05540   0.48950   1.000
    H22     H    0.89390   0.05010   0.47910   1.000
    C23     C    0.15230   0.10800   0.63140   1.000
    C24     C    0.21220   0.13960   0.60170   1.000
    H23     H    0.17910   0.16500   0.58840   1.000
    C25     C    0.32320   0.13430   0.59100   1.000
    H24     H    0.36480   0.15640   0.57220   1.000
    C26     C    0.37180   0.09810   0.60690   1.000
    C27     C    0.31050   0.06560   0.63610   1.000
    H25     H    0.34300   0.04000   0.64640   1.000
    C28     C    0.20280   0.07110   0.64980   1.000
    H26     H    0.16220   0.04930   0.67220   1.000
    C29     C    0.48850   0.09141   0.59510   1.000
    O3      O    0.52540   0.05596   0.59470   1.000
    O4      O    0.55080   0.12109   0.58920   1.000
    N5      N    0.11320   0.79391   0.73580   1.000
    N6      N    0.04900   0.78510   0.81600   1.000
    C30     C    0.97450   0.81370   0.82260   1.000
    C31     C    0.98780   0.84170   0.74920   1.000
    C32     C    0.07470   0.82800   0.69350   1.000
    C33     C    0.11200   0.84820   0.60490   1.000
    H27     H    0.17800   0.86330   0.62820   1.000
    H28     H    0.05550   0.86640   0.57400   1.000
    H29     H    0.12780   0.82840   0.55260   1.000
    C34     C    0.89170   0.81260   0.90060   1.000
    H30     H    0.85340   0.83820   0.89950   1.000
    H31     H    0.92890   0.80770   0.97090   1.000
    H32     H    0.83940   0.79110   0.88170   1.000
    C35     C    0.92080   0.87730   0.72420   1.000
    C36     C    0.80900   0.87340   0.68810   1.000
    H33     H    0.77570   0.84780   0.68280   1.000
    C37     C    0.74750   0.90810   0.66010   1.000
    H34     H    0.67310   0.90570   0.63350   1.000
    C38     C    0.79290   0.94467   0.67070   1.000
    C39     C    0.89620   0.94880   0.71360   1.000
    H35     H    0.92570   0.97480   0.72540   1.000
    C40     C    0.96080   0.91560   0.74130   1.000
    H36     H    0.03350   0.91930   0.77230   1.000
    C41     C    0.72490   0.98022   0.63350   1.000
    O5      O    0.62910   0.97401   0.59570   1.000
    O6      O    0.76500   0.01371   0.64630   1.000
    Fe2     Fe   0.30214   0.56952   0.39557   1.000
    C42     C    0.20850   0.65021   0.26740   1.000
    H37     H    0.26830   0.65670   0.32270   1.000
    H38     H    0.18360   0.67540   0.23210   1.000
    N7      N    0.30350   0.58985   0.22830   1.000
    N8      N    0.24850   0.62308   0.19130   1.000
    C43     C    0.24200   0.62560   0.08750   1.000
    C44     C    0.29610   0.59340   0.05320   1.000
    C45     C    0.33270   0.57123   0.14370   1.000
    C46     C    0.39330   0.53280   0.15330   1.000
    H39     H    0.44390   0.53300   0.21770   1.000
    H40     H    0.43400   0.52950   0.09300   1.000
    H41     H    0.34190   0.51070   0.15560   1.000
    C47     C    0.18380   0.66030   0.02800   1.000
    H42     H    0.20670   0.68550   0.06230   1.000
    H43     H    0.10510   0.65710   0.02750   1.000
    H44     H    0.20200   0.66050   0.95590   1.000
    C48     C    0.30920   0.58320   0.94350   1.000
    C49     C    0.32150   0.61110   0.87190   1.000
    H45     H    0.32080   0.63840   0.89240   1.000
    C50     C    0.23570   0.58970   0.87110   1.000
    H46     H    0.17210   0.60370   0.88450   1.000
    C51     C    0.33540   0.60230   0.76830   1.000
    H47     H    0.34480   0.62310   0.71990   1.000
    C52     C    0.24700   0.57640   0.77040   1.000
    H48     H    0.18390   0.57740   0.72090   1.000
    C53     C    0.33540   0.56257   0.73700   1.000
    C54     C    0.31350   0.53340   0.80210   1.000
    H49     H    0.30930   0.50650   0.77830   1.000
    C55     C    0.43230   0.55950   0.82090   1.000
    H50     H    0.50020   0.55020   0.80320   1.000
    C56     C    0.29670   0.54230   0.90600   1.000
    H51     H    0.27720   0.52180   0.95120   1.000
    C57     C    0.42100   0.57050   0.92440   1.000
    H52     H    0.48000   0.56980   0.97840   1.000
    C58     C    0.34870   0.55323   0.62650   1.000
    O7      O    0.30500   0.57557   0.55690   1.000
    O8      O    0.39760   0.52273   0.60680   1.000
    N9      N    0.14190   0.60005   0.37630   1.000
    N10     N    0.11920   0.63215   0.31470   1.000
    C59     C    0.01310   0.64015   0.30090   1.000
    C60     C    0.96290   0.61200   0.35700   1.000
    C61     C    0.04820   0.58719   0.40230   1.000
    C62     C    0.96500   0.67490   0.23780   1.000
    H53     H    0.88880   0.67820   0.24980   1.000
    H54     H    0.96910   0.66990   0.16340   1.000
    H55     H    0.00550   0.69920   0.25920   1.000
    C63     C    0.03990   0.55210   0.47160   1.000
    H56     H    0.03110   0.52780   0.42920   1.000
    H57     H    0.97700   0.55540   0.51050   1.000
    H58     H    0.10610   0.55010   0.52090   1.000
    C64     C    0.84770   0.60800   0.36860   1.000
    C65     C    0.78780   0.63960   0.39830   1.000
    H59     H    0.82090   0.66500   0.41160   1.000
    C66     C    0.67680   0.63430   0.40900   1.000
    H60     H    0.63520   0.65640   0.42780   1.000
    C67     C    0.62820   0.59810   0.39310   1.000
    C68     C    0.68950   0.56560   0.36390   1.000
    H61     H    0.65700   0.54000   0.35360   1.000
    C69     C    0.79720   0.57110   0.35020   1.000
    H62     H    0.83780   0.54930   0.32780   1.000
    C70     C    0.51150   0.59141   0.40490   1.000
    O9      O    0.47460   0.55596   0.40530   1.000
    O10     O    0.44920   0.62109   0.41080   1.000
    N11     N    0.88680   0.29391   0.26420   1.000
    N12     N    0.95100   0.28510   0.18400   1.000
    C71     C    0.02550   0.31370   0.17740   1.000
    C72     C    0.01220   0.34170   0.25080   1.000
    C73     C    0.92530   0.32800   0.30650   1.000
    C74     C    0.88800   0.34820   0.39510   1.000
    H63     H    0.82200   0.36330   0.37180   1.000
    H64     H    0.94450   0.36640   0.42600   1.000
    H65     H    0.87220   0.32840   0.44740   1.000
    C75     C    0.10830   0.31260   0.09940   1.000
    H66     H    0.14660   0.33820   0.10050   1.000
    H67     H    0.07110   0.30770   0.02910   1.000
    H68     H    0.16060   0.29110   0.11830   1.000
    C76     C    0.07920   0.37730   0.27580   1.000
    C77     C    0.19100   0.37340   0.31190   1.000
    H69     H    0.22430   0.34780   0.31720   1.000
    C78     C    0.25250   0.40810   0.33990   1.000
    H70     H    0.32690   0.40570   0.36650   1.000
    C79     C    0.20710   0.44467   0.32930   1.000
    C80     C    0.10380   0.44880   0.28640   1.000
    H71     H    0.07430   0.47480   0.27460   1.000
    C81     C    0.03920   0.41560   0.25870   1.000
    H72     H    0.96650   0.41930   0.22770   1.000
    C82     C    0.27510   0.48022   0.36650   1.000
    O11     O    0.37090   0.47401   0.40430   1.000
    O12     O    0.23500   0.51371   0.35370   1.000
    Fe3     Fe   0.30214   0.93048   0.39557   1.000
    C83     C    0.20850   0.84979   0.26740   1.000
    H73     H    0.26830   0.84330   0.32270   1.000
    H74     H    0.18360   0.82460   0.23210   1.000
    N13     N    0.30350   0.91015   0.22830   1.000
    N14     N    0.24850   0.87692   0.19130   1.000
    C84     C    0.24200   0.87440   0.08750   1.000
    C85     C    0.29610   0.90660   0.05320   1.000
    C86     C    0.33270   0.92877   0.14370   1.000
    C87     C    0.39330   0.96720   0.15330   1.000
    H75     H    0.44390   0.96700   0.21770   1.000
    H76     H    0.43400   0.97050   0.09300   1.000
    H77     H    0.34190   0.98930   0.15560   1.000
    C88     C    0.18380   0.83970   0.02800   1.000
    H78     H    0.20670   0.81450   0.06230   1.000
    H79     H    0.10510   0.84290   0.02750   1.000
    H80     H    0.20200   0.83950   0.95590   1.000
    C89     C    0.30920   0.91680   0.94350   1.000
    C90     C    0.32150   0.88890   0.87190   1.000
    H81     H    0.32080   0.86160   0.89240   1.000
    C91     C    0.23570   0.91030   0.87110   1.000
    H82     H    0.17210   0.89630   0.88450   1.000
    C92     C    0.33540   0.89770   0.76830   1.000
    H83     H    0.34480   0.87690   0.71990   1.000
    C93     C    0.24700   0.92360   0.77040   1.000
    H84     H    0.18390   0.92260   0.72090   1.000
    C94     C    0.33540   0.93743   0.73700   1.000
    C95     C    0.31350   0.96660   0.80210   1.000
    H85     H    0.30930   0.99350   0.77830   1.000
    C96     C    0.43230   0.94050   0.82090   1.000
    H86     H    0.50020   0.94980   0.80320   1.000
    C97     C    0.29670   0.95770   0.90600   1.000
    H87     H    0.27720   0.97820   0.95120   1.000
    C98     C    0.42100   0.92950   0.92440   1.000
    H88     H    0.48000   0.93020   0.97840   1.000
    C99     C    0.34870   0.94677   0.62650   1.000
    O13     O    0.30500   0.92443   0.55690   1.000
    O14     O    0.39760   0.97727   0.60680   1.000
    N15     N    0.14190   0.89995   0.37630   1.000
    N16     N    0.11920   0.86785   0.31470   1.000
    C100    C    0.01310   0.85985   0.30090   1.000
    C101    C    0.96290   0.88800   0.35700   1.000
    C102    C    0.04820   0.91281   0.40230   1.000
    C103    C    0.96500   0.82510   0.23780   1.000
    H89     H    0.88880   0.82180   0.24980   1.000
    H90     H    0.96910   0.83010   0.16340   1.000
    H91     H    0.00550   0.80080   0.25920   1.000
    C104    C    0.03990   0.94790   0.47160   1.000
    H92     H    0.03110   0.97220   0.42920   1.000
    H93     H    0.97700   0.94460   0.51050   1.000
    H94     H    0.10610   0.94990   0.52090   1.000
    C105    C    0.84770   0.89200   0.36860   1.000
    C106    C    0.78780   0.86040   0.39830   1.000
    H95     H    0.82090   0.83500   0.41160   1.000
    C107    C    0.67680   0.86570   0.40900   1.000
    H96     H    0.63520   0.84360   0.42780   1.000
    C108    C    0.62820   0.90190   0.39310   1.000
    C109    C    0.68950   0.93440   0.36390   1.000
    H97     H    0.65700   0.96000   0.35360   1.000
    C110    C    0.79720   0.92890   0.35020   1.000
    H98     H    0.83780   0.95070   0.32780   1.000
    C111    C    0.51150   0.90859   0.40490   1.000
    O15     O    0.47460   0.94404   0.40530   1.000
    O16     O    0.44920   0.87891   0.41080   1.000
    N17     N    0.88680   0.20609   0.26420   1.000
    N18     N    0.95100   0.21490   0.18400   1.000
    C112    C    0.02550   0.18630   0.17740   1.000
    C113    C    0.01220   0.15830   0.25080   1.000
    C114    C    0.92530   0.17200   0.30650   1.000
    C115    C    0.88800   0.15180   0.39510   1.000
    H99     H    0.82200   0.13670   0.37180   1.000
    H100    H    0.94450   0.13360   0.42600   1.000
    H101    H    0.87220   0.17160   0.44740   1.000
    C116    C    0.10830   0.18740   0.09940   1.000
    H102    H    0.14660   0.16180   0.10050   1.000
    H103    H    0.07110   0.19230   0.02910   1.000
    H104    H    0.16060   0.20890   0.11830   1.000
    C117    C    0.07920   0.12270   0.27580   1.000
    C118    C    0.19100   0.12660   0.31190   1.000
    H105    H    0.22430   0.15220   0.31720   1.000
    C119    C    0.25250   0.09190   0.33990   1.000
    H106    H    0.32690   0.09430   0.36650   1.000
    C120    C    0.20710   0.05533   0.32930   1.000
    C121    C    0.10380   0.05120   0.28640   1.000
    H107    H    0.07430   0.02520   0.27460   1.000
    C122    C    0.03920   0.08440   0.25870   1.000
    H108    H    0.96650   0.08070   0.22770   1.000
    C123    C    0.27510   0.01978   0.36650   1.000
    O17     O    0.37090   0.02599   0.40430   1.000
    O18     O    0.23500   0.98629   0.35370   1.000
    Fe4     Fe   0.69786   0.43048   0.60443   1.000
    C124    C    0.79150   0.34979   0.73260   1.000
    H109    H    0.73170   0.34330   0.67730   1.000
    H110    H    0.81640   0.32460   0.76790   1.000
    N19     N    0.69650   0.41015   0.77170   1.000
    N20     N    0.75150   0.37692   0.80870   1.000
    C125    C    0.75800   0.37440   0.91250   1.000
    C126    C    0.70390   0.40660   0.94680   1.000
    C127    C    0.66730   0.42877   0.85630   1.000
    C128    C    0.60670   0.46720   0.84670   1.000
    H111    H    0.55610   0.46700   0.78230   1.000
    H112    H    0.56600   0.47050   0.90700   1.000
    H113    H    0.65810   0.48930   0.84440   1.000
    C129    C    0.81620   0.33970   0.97200   1.000
    H114    H    0.79330   0.31450   0.93770   1.000
    H115    H    0.89490   0.34290   0.97250   1.000
    H116    H    0.79800   0.33950   0.04410   1.000
    C130    C    0.69080   0.41680   0.05650   1.000
    C131    C    0.67850   0.38890   0.12810   1.000
    H117    H    0.67920   0.36160   0.10760   1.000
    C132    C    0.76430   0.41030   0.12890   1.000
    H118    H    0.82790   0.39630   0.11550   1.000
    C133    C    0.66460   0.39770   0.23170   1.000
    H119    H    0.65520   0.37690   0.28010   1.000
    C134    C    0.75300   0.42360   0.22960   1.000
    H120    H    0.81610   0.42260   0.27910   1.000
    C135    C    0.66460   0.43743   0.26300   1.000
    C136    C    0.68650   0.46660   0.19790   1.000
    H121    H    0.69070   0.49350   0.22170   1.000
    C137    C    0.56770   0.44050   0.17910   1.000
    H122    H    0.49980   0.44980   0.19680   1.000
    C138    C    0.70330   0.45770   0.09400   1.000
    H123    H    0.72280   0.47820   0.04880   1.000
    C139    C    0.57900   0.42950   0.07560   1.000
    H124    H    0.52000   0.43020   0.02160   1.000
    C140    C    0.65130   0.44677   0.37350   1.000
    O19     O    0.69500   0.42443   0.44310   1.000
    O20     O    0.60240   0.47727   0.39320   1.000
    N21     N    0.85810   0.39995   0.62370   1.000
    N22     N    0.88080   0.36785   0.68530   1.000
    C141    C    0.98690   0.35985   0.69910   1.000
    C142    C    0.03710   0.38800   0.64300   1.000
    C143    C    0.95180   0.41281   0.59770   1.000
    C144    C    0.03500   0.32510   0.76220   1.000
    H125    H    0.11120   0.32180   0.75020   1.000
    H126    H    0.03090   0.33010   0.83660   1.000
    H127    H    0.99450   0.30080   0.74080   1.000
    C145    C    0.96010   0.44790   0.52840   1.000
    H128    H    0.96890   0.47220   0.57080   1.000
    H129    H    0.02300   0.44460   0.48950   1.000
    H130    H    0.89390   0.44990   0.47910   1.000
    C146    C    0.15230   0.39200   0.63140   1.000
    C147    C    0.21220   0.36040   0.60170   1.000
    H131    H    0.17910   0.33500   0.58840   1.000
    C148    C    0.32320   0.36570   0.59100   1.000
    H132    H    0.36480   0.34360   0.57220   1.000
    C149    C    0.37180   0.40190   0.60690   1.000
    C150    C    0.31050   0.43440   0.63610   1.000
    H133    H    0.34300   0.46000   0.64640   1.000
    C151    C    0.20280   0.42890   0.64980   1.000
    H134    H    0.16220   0.45070   0.67220   1.000
    C152    C    0.48850   0.40859   0.59510   1.000
    O21     O    0.52540   0.44404   0.59470   1.000
    O22     O    0.55080   0.37891   0.58920   1.000
    N23     N    0.11320   0.70609   0.73580   1.000
    N24     N    0.04900   0.71490   0.81600   1.000
    C153    C    0.97450   0.68630   0.82260   1.000
    C154    C    0.98780   0.65830   0.74920   1.000
    C155    C    0.07470   0.67200   0.69350   1.000
    C156    C    0.11200   0.65180   0.60490   1.000
    H135    H    0.17800   0.63670   0.62820   1.000
    H136    H    0.05550   0.63360   0.57400   1.000
    H137    H    0.12780   0.67160   0.55260   1.000
    C157    C    0.89170   0.68740   0.90060   1.000
    H138    H    0.85340   0.66180   0.89950   1.000
    H139    H    0.92890   0.69230   0.97090   1.000
    H140    H    0.83940   0.70890   0.88170   1.000
    C158    C    0.92080   0.62270   0.72420   1.000
    C159    C    0.80900   0.62660   0.68810   1.000
    H141    H    0.77570   0.65220   0.68280   1.000
    C160    C    0.74750   0.59190   0.66010   1.000
    H142    H    0.67310   0.59430   0.63350   1.000
    C161    C    0.79290   0.55533   0.67070   1.000
    C162    C    0.89620   0.55120   0.71360   1.000
    H143    H    0.92570   0.52520   0.72540   1.000
    C163    C    0.96080   0.58440   0.74130   1.000
    H144    H    0.03350   0.58070   0.77230   1.000
    C164    C    0.72490   0.51978   0.63350   1.000
    O23     O    0.62910   0.52599   0.59570   1.000
    O24     O    0.76500   0.48629   0.64630   1.000
    Fe5     Fe   0.50000   0.00000   0.50000   1.000
    Fe6     Fe   0.50000   0.50000   0.50000   1.000
    Fe7     Fe   0.21931   0.75000   0.69427   1.000
    Cl1     Cl   0.35020   0.75000   0.85040   1.000
    C165    C    0.06980   0.75000   0.87920   1.000
    H145    H    0.02250   0.75000   0.93610   1.000
    H146    H    0.14630   0.75000   0.91130   1.000
    Fe8     Fe   0.78069   0.25000   0.30573   1.000
    Cl2     Cl   0.64980   0.25000   0.14960   1.000
    C166    C    0.93020   0.25000   0.12080   1.000
    H147    H    0.97750   0.25000   0.06390   1.000
    H148    H    0.85370   0.25000   0.08870   1.000
