# CIF file generated by openbabel 2.4.1, see http://openbabel.sf.net
data_I
_chemical_name_common 'image0'
_cell_length_a 23.252
_cell_length_b 13.098
_cell_length_c 20.301
_cell_angle_alpha 90
_cell_angle_beta 114.099
_cell_angle_gamma 90
_space_group_name_H-M_alt 'P 1'
_space_group_name_Hall 'P 1'
loop_
    _symmetry_equiv_pos_as_xyz
    x,y,z
loop_
    _atom_site_label
    _atom_site_type_symbol
    _atom_site_fract_x
    _atom_site_fract_y
    _atom_site_fract_z
    _atom_site_occupancy
    Zn1     Zn   0.23229   0.29586   0.19195   1.000
    Cu1     Cu   0.19689   0.06447   0.50317   1.000
    N1      N    0.27917   0.31040   0.29803   1.000
    N2      N    0.30794   0.36520   0.41163   1.000
    C1      C    0.26521   0.36980   0.34330   1.000
    H1      H    0.22850   0.41110   0.32830   1.000
    C2      C    0.35251   0.29790   0.40981   1.000
    H2      H    0.38940   0.27790   0.45020   1.000
    C3      C    0.33535   0.26440   0.34098   1.000
    H3      H    0.35820   0.21740   0.32520   1.000
    N3      N    0.24848   0.42100   0.14636   1.000
    N4      N    0.27396   0.52060   0.07266   1.000
    C4      C    0.26371   0.42570   0.08943   1.000
    H4      H    0.26690   0.36710   0.06350   1.000
    C5      C    0.24885   0.52180   0.16730   1.000
    H5      H    0.23950   0.54480   0.20630   1.000
    C6      C    0.26467   0.58200   0.12310   1.000
    H6      H    0.26870   0.65420   0.12610   1.000
    N5      N    0.14178   0.27690   0.17194   1.000
    N6      N    0.05484   0.26440   0.19395   1.000
    C7      C    0.11775   0.27020   0.22160   1.000
    H7      H    0.14320   0.26970   0.27200   1.000
    C8      C    0.08966   0.27420   0.10750   1.000
    H8      H    0.09040   0.27720   0.06110   1.000
    C9      C    0.03725   0.26670   0.12040   1.000
    H9      H    0.99530   0.26340   0.08470   1.000
    N7      N    0.07594   0.25270   0.34153   1.000
    N8      N    0.14811   0.17640   0.43890   1.000
    C10     C    0.09751   0.16500   0.37641   1.000
    H10     H    0.07880   0.10060   0.35860   1.000
    C11     C    0.15993   0.27940   0.44372   1.000
    H11     H    0.19320   0.31290   0.48190   1.000
    C12     C    0.11564   0.32570   0.38425   1.000
    H12     H    0.11290   0.39690   0.37430   1.000
    N9      N    0.24104   0.94700   0.56624   1.000
    N10     N    0.25656   0.82010   0.64552   1.000
    C13     C    0.21629   0.88760   0.60139   1.000
    H13     H    0.17370   0.89300   0.59550   1.000
    C14     C    0.31220   0.83790   0.63810   1.000
    H14     H    0.35070   0.80220   0.66250   1.000
    C15     C    0.30254   0.91510   0.59020   1.000
    H15     H    0.33330   0.94270   0.57570   1.000
    H16     H    0.97110   0.66120   0.28680   1.000
    C16     C    0.97630   0.50660   0.28510   1.000
    H17     H    0.95680   0.48400   0.31560   1.000
    C17     C    0.98560   0.60420   0.27090   1.000
    H18     H    0.97200   0.66240   0.28860   1.000
    N11     N    0.98390   0.60680   0.27110   1.000
    Zn2     Zn   0.73229   0.79586   0.19195   1.000
    Cu2     Cu   0.69689   0.56447   0.50317   1.000
    N12     N    0.77917   0.81040   0.29803   1.000
    N13     N    0.80794   0.86520   0.41163   1.000
    C18     C    0.76521   0.86980   0.34330   1.000
    H19     H    0.72850   0.91110   0.32830   1.000
    C19     C    0.85251   0.79790   0.40981   1.000
    H20     H    0.88940   0.77790   0.45020   1.000
    C20     C    0.83535   0.76440   0.34098   1.000
    H21     H    0.85820   0.71740   0.32520   1.000
    N14     N    0.74848   0.92100   0.14636   1.000
    N15     N    0.77396   0.02060   0.07266   1.000
    C21     C    0.76371   0.92570   0.08943   1.000
    H22     H    0.76690   0.86710   0.06350   1.000
    C22     C    0.74885   0.02180   0.16730   1.000
    H23     H    0.73950   0.04480   0.20630   1.000
    C23     C    0.76467   0.08200   0.12310   1.000
    H24     H    0.76870   0.15420   0.12610   1.000
    N16     N    0.64178   0.77690   0.17194   1.000
    N17     N    0.55484   0.76440   0.19395   1.000
    C24     C    0.61775   0.77020   0.22160   1.000
    H25     H    0.64320   0.76970   0.27200   1.000
    C25     C    0.58966   0.77420   0.10750   1.000
    H26     H    0.59040   0.77720   0.06110   1.000
    C26     C    0.53725   0.76670   0.12040   1.000
    H27     H    0.49530   0.76340   0.08470   1.000
    N18     N    0.57594   0.75270   0.34153   1.000
    N19     N    0.64811   0.67640   0.43890   1.000
    C27     C    0.59751   0.66500   0.37641   1.000
    H28     H    0.57880   0.60060   0.35860   1.000
    C28     C    0.65993   0.77940   0.44372   1.000
    H29     H    0.69320   0.81290   0.48190   1.000
    C29     C    0.61564   0.82570   0.38425   1.000
    H30     H    0.61290   0.89690   0.37430   1.000
    N20     N    0.74104   0.44700   0.56624   1.000
    N21     N    0.75656   0.32010   0.64552   1.000
    C30     C    0.71629   0.38760   0.60139   1.000
    H31     H    0.67370   0.39300   0.59550   1.000
    C31     C    0.81220   0.33790   0.63810   1.000
    H32     H    0.85070   0.30220   0.66250   1.000
    C32     C    0.80254   0.41510   0.59020   1.000
    H33     H    0.83330   0.44270   0.57570   1.000
    H34     H    0.47110   0.16120   0.28680   1.000
    C33     C    0.47630   0.00660   0.28510   1.000
    H35     H    0.45680   0.98400   0.31560   1.000
    C34     C    0.48560   0.10420   0.27090   1.000
    H36     H    0.47200   0.16240   0.28860   1.000
    N22     N    0.48390   0.10680   0.27110   1.000
    Zn3     Zn   0.76771   0.29586   0.30805   1.000
    Cu3     Cu   0.80311   0.06447   0.99683   1.000
    N23     N    0.72083   0.31040   0.20197   1.000
    N24     N    0.69206   0.36520   0.08837   1.000
    C35     C    0.73479   0.36980   0.15670   1.000
    H37     H    0.77150   0.41110   0.17170   1.000
    C36     C    0.64749   0.29790   0.09019   1.000
    H38     H    0.61060   0.27790   0.04980   1.000
    C37     C    0.66465   0.26440   0.15902   1.000
    H39     H    0.64180   0.21740   0.17480   1.000
    N25     N    0.75152   0.42100   0.35364   1.000
    N26     N    0.72604   0.52060   0.42734   1.000
    C38     C    0.73629   0.42570   0.41057   1.000
    H40     H    0.73310   0.36710   0.43650   1.000
    C39     C    0.75115   0.52180   0.33270   1.000
    H41     H    0.76050   0.54480   0.29370   1.000
    C40     C    0.73533   0.58200   0.37690   1.000
    H42     H    0.73130   0.65420   0.37390   1.000
    N27     N    0.85822   0.27690   0.32806   1.000
    N28     N    0.94516   0.26440   0.30605   1.000
    C41     C    0.88225   0.27020   0.27840   1.000
    H43     H    0.85680   0.26970   0.22800   1.000
    C42     C    0.91034   0.27420   0.39250   1.000
    H44     H    0.90960   0.27720   0.43890   1.000
    C43     C    0.96275   0.26670   0.37960   1.000
    H45     H    0.00470   0.26340   0.41530   1.000
    N29     N    0.92406   0.25270   0.15847   1.000
    N30     N    0.85189   0.17640   0.06110   1.000
    C44     C    0.90249   0.16500   0.12359   1.000
    H46     H    0.92120   0.10060   0.14140   1.000
    C45     C    0.84007   0.27940   0.05628   1.000
    H47     H    0.80680   0.31290   0.01810   1.000
    C46     C    0.88436   0.32570   0.11575   1.000
    H48     H    0.88710   0.39690   0.12570   1.000
    N31     N    0.75896   0.94700   0.93376   1.000
    N32     N    0.74344   0.82010   0.85448   1.000
    C47     C    0.78371   0.88760   0.89861   1.000
    H49     H    0.82630   0.89300   0.90450   1.000
    C48     C    0.68780   0.83790   0.86190   1.000
    H50     H    0.64930   0.80220   0.83750   1.000
    C49     C    0.69746   0.91510   0.90980   1.000
    H51     H    0.66670   0.94270   0.92430   1.000
    H52     H    0.02890   0.66120   0.21320   1.000
    C50     C    0.02370   0.50660   0.21490   1.000
    H53     H    0.04320   0.48400   0.18440   1.000
    C51     C    0.01440   0.60420   0.22910   1.000
    H54     H    0.02800   0.66240   0.21140   1.000
    N33     N    0.01610   0.60680   0.22890   1.000
    Zn4     Zn   0.26771   0.79586   0.30805   1.000
    Cu4     Cu   0.30311   0.56447   0.99683   1.000
    N34     N    0.22083   0.81040   0.20197   1.000
    N35     N    0.19206   0.86520   0.08837   1.000
    C52     C    0.23479   0.86980   0.15670   1.000
    H55     H    0.27150   0.91110   0.17170   1.000
    C53     C    0.14749   0.79790   0.09019   1.000
    H56     H    0.11060   0.77790   0.04980   1.000
    C54     C    0.16465   0.76440   0.15902   1.000
    H57     H    0.14180   0.71740   0.17480   1.000
    N36     N    0.25152   0.92100   0.35364   1.000
    N37     N    0.22604   0.02060   0.42734   1.000
    C55     C    0.23629   0.92570   0.41057   1.000
    H58     H    0.23310   0.86710   0.43650   1.000
    C56     C    0.25115   0.02180   0.33270   1.000
    H59     H    0.26050   0.04480   0.29370   1.000
    C57     C    0.23533   0.08200   0.37690   1.000
    H60     H    0.23130   0.15420   0.37390   1.000
    N38     N    0.35822   0.77690   0.32806   1.000
    N39     N    0.44516   0.76440   0.30605   1.000
    C58     C    0.38225   0.77020   0.27840   1.000
    H61     H    0.35680   0.76970   0.22800   1.000
    C59     C    0.41034   0.77420   0.39250   1.000
    H62     H    0.40960   0.77720   0.43890   1.000
    C60     C    0.46275   0.76670   0.37960   1.000
    H63     H    0.50470   0.76340   0.41530   1.000
    N40     N    0.42406   0.75270   0.15847   1.000
    N41     N    0.35189   0.67640   0.06110   1.000
    C61     C    0.40249   0.66500   0.12359   1.000
    H64     H    0.42120   0.60060   0.14140   1.000
    C62     C    0.34007   0.77940   0.05628   1.000
    H65     H    0.30680   0.81290   0.01810   1.000
    C63     C    0.38436   0.82570   0.11575   1.000
    H66     H    0.38710   0.89690   0.12570   1.000
    N42     N    0.25896   0.44700   0.93376   1.000
    N43     N    0.24344   0.32010   0.85448   1.000
    C64     C    0.28371   0.38760   0.89861   1.000
    H67     H    0.32630   0.39300   0.90450   1.000
    C65     C    0.18780   0.33790   0.86190   1.000
    H68     H    0.14930   0.30220   0.83750   1.000
    C66     C    0.19746   0.41510   0.90980   1.000
    H69     H    0.16670   0.44270   0.92430   1.000
    H70     H    0.52890   0.16120   0.21320   1.000
    C67     C    0.52370   0.00660   0.21490   1.000
    H71     H    0.54320   0.98400   0.18440   1.000
    C68     C    0.51440   0.10420   0.22910   1.000
    H72     H    0.52800   0.16240   0.21140   1.000
    N44     N    0.51610   0.10680   0.22890   1.000
    Zn5     Zn   0.76771   0.70414   0.80805   1.000
    Cu5     Cu   0.80311   0.93553   0.49683   1.000
    N45     N    0.72083   0.68960   0.70197   1.000
    N46     N    0.69206   0.63480   0.58837   1.000
    C69     C    0.73479   0.63020   0.65670   1.000
    H73     H    0.77150   0.58890   0.67170   1.000
    C70     C    0.64749   0.70210   0.59019   1.000
    H74     H    0.61060   0.72210   0.54980   1.000
    C71     C    0.66465   0.73560   0.65902   1.000
    H75     H    0.64180   0.78260   0.67480   1.000
    N47     N    0.75152   0.57900   0.85364   1.000
    N48     N    0.72604   0.47940   0.92734   1.000
    C72     C    0.73629   0.57430   0.91057   1.000
    H76     H    0.73310   0.63290   0.93650   1.000
    C73     C    0.75115   0.47820   0.83270   1.000
    H77     H    0.76050   0.45520   0.79370   1.000
    C74     C    0.73533   0.41800   0.87690   1.000
    H78     H    0.73130   0.34580   0.87390   1.000
    N49     N    0.85822   0.72310   0.82806   1.000
    N50     N    0.94516   0.73560   0.80605   1.000
    C75     C    0.88225   0.72980   0.77840   1.000
    H79     H    0.85680   0.73030   0.72800   1.000
    C76     C    0.91034   0.72580   0.89250   1.000
    H80     H    0.90960   0.72280   0.93890   1.000
    C77     C    0.96275   0.73330   0.87960   1.000
    H81     H    0.00470   0.73660   0.91530   1.000
    N51     N    0.92406   0.74730   0.65847   1.000
    N52     N    0.85189   0.82360   0.56110   1.000
    C78     C    0.90249   0.83500   0.62359   1.000
    H82     H    0.92120   0.89940   0.64140   1.000
    C79     C    0.84007   0.72060   0.55628   1.000
    H83     H    0.80680   0.68710   0.51810   1.000
    C80     C    0.88436   0.67430   0.61575   1.000
    H84     H    0.88710   0.60310   0.62570   1.000
    N53     N    0.75896   0.05300   0.43376   1.000
    N54     N    0.74344   0.17990   0.35448   1.000
    C81     C    0.78371   0.11240   0.39861   1.000
    H85     H    0.82630   0.10700   0.40450   1.000
    C82     C    0.68780   0.16210   0.36190   1.000
    H86     H    0.64930   0.19780   0.33750   1.000
    C83     C    0.69746   0.08490   0.40980   1.000
    H87     H    0.66670   0.05730   0.42430   1.000
    H88     H    0.02890   0.33880   0.71320   1.000
    C84     C    0.02370   0.49340   0.71490   1.000
    H89     H    0.04320   0.51600   0.68440   1.000
    C85     C    0.01440   0.39580   0.72910   1.000
    H90     H    0.02800   0.33760   0.71140   1.000
    N55     N    0.01610   0.39320   0.72890   1.000
    Zn6     Zn   0.26771   0.20414   0.80805   1.000
    Cu6     Cu   0.30311   0.43553   0.49683   1.000
    N56     N    0.22083   0.18960   0.70197   1.000
    N57     N    0.19206   0.13480   0.58837   1.000
    C86     C    0.23479   0.13020   0.65670   1.000
    H91     H    0.27150   0.08890   0.67170   1.000
    C87     C    0.14749   0.20210   0.59019   1.000
    H92     H    0.11060   0.22210   0.54980   1.000
    C88     C    0.16465   0.23560   0.65902   1.000
    H93     H    0.14180   0.28260   0.67480   1.000
    N58     N    0.25152   0.07900   0.85364   1.000
    N59     N    0.22604   0.97940   0.92734   1.000
    C89     C    0.23629   0.07430   0.91057   1.000
    H94     H    0.23310   0.13290   0.93650   1.000
    C90     C    0.25115   0.97820   0.83270   1.000
    H95     H    0.26050   0.95520   0.79370   1.000
    C91     C    0.23533   0.91800   0.87690   1.000
    H96     H    0.23130   0.84580   0.87390   1.000
    N60     N    0.35822   0.22310   0.82806   1.000
    N61     N    0.44516   0.23560   0.80605   1.000
    C92     C    0.38225   0.22980   0.77840   1.000
    H97     H    0.35680   0.23030   0.72800   1.000
    C93     C    0.41034   0.22580   0.89250   1.000
    H98     H    0.40960   0.22280   0.93890   1.000
    C94     C    0.46275   0.23330   0.87960   1.000
    H99     H    0.50470   0.23660   0.91530   1.000
    N62     N    0.42406   0.24730   0.65847   1.000
    N63     N    0.35189   0.32360   0.56110   1.000
    C95     C    0.40249   0.33500   0.62359   1.000
    H100    H    0.42120   0.39940   0.64140   1.000
    C96     C    0.34007   0.22060   0.55628   1.000
    H101    H    0.30680   0.18710   0.51810   1.000
    C97     C    0.38436   0.17430   0.61575   1.000
    H102    H    0.38710   0.10310   0.62570   1.000
    N64     N    0.25896   0.55300   0.43376   1.000
    N65     N    0.24344   0.67990   0.35448   1.000
    C98     C    0.28371   0.61240   0.39861   1.000
    H103    H    0.32630   0.60700   0.40450   1.000
    C99     C    0.18780   0.66210   0.36190   1.000
    H104    H    0.14930   0.69780   0.33750   1.000
    C100    C    0.19746   0.58490   0.40980   1.000
    H105    H    0.16670   0.55730   0.42430   1.000
    H106    H    0.52890   0.83880   0.71320   1.000
    C101    C    0.52370   0.99340   0.71490   1.000
    H107    H    0.54320   0.01600   0.68440   1.000
    C102    C    0.51440   0.89580   0.72910   1.000
    H108    H    0.52800   0.83760   0.71140   1.000
    N66     N    0.51610   0.89320   0.72890   1.000
    Zn7     Zn   0.23229   0.70414   0.69195   1.000
    Cu7     Cu   0.19689   0.93553   0.00317   1.000
    N67     N    0.27917   0.68960   0.79803   1.000
    N68     N    0.30794   0.63480   0.91163   1.000
    C103    C    0.26521   0.63020   0.84330   1.000
    H109    H    0.22850   0.58890   0.82830   1.000
    C104    C    0.35251   0.70210   0.90981   1.000
    H110    H    0.38940   0.72210   0.95020   1.000
    C105    C    0.33535   0.73560   0.84098   1.000
    H111    H    0.35820   0.78260   0.82520   1.000
    N69     N    0.24848   0.57900   0.64636   1.000
    N70     N    0.27396   0.47940   0.57266   1.000
    C106    C    0.26371   0.57430   0.58943   1.000
    H112    H    0.26690   0.63290   0.56350   1.000
    C107    C    0.24885   0.47820   0.66730   1.000
    H113    H    0.23950   0.45520   0.70630   1.000
    C108    C    0.26467   0.41800   0.62310   1.000
    H114    H    0.26870   0.34580   0.62610   1.000
    N71     N    0.14178   0.72310   0.67194   1.000
    N72     N    0.05484   0.73560   0.69395   1.000
    C109    C    0.11775   0.72980   0.72160   1.000
    H115    H    0.14320   0.73030   0.77200   1.000
    C110    C    0.08966   0.72580   0.60750   1.000
    H116    H    0.09040   0.72280   0.56110   1.000
    C111    C    0.03725   0.73330   0.62040   1.000
    H117    H    0.99530   0.73660   0.58470   1.000
    N73     N    0.07594   0.74730   0.84153   1.000
    N74     N    0.14811   0.82360   0.93890   1.000
    C112    C    0.09751   0.83500   0.87641   1.000
    H118    H    0.07880   0.89940   0.85860   1.000
    C113    C    0.15993   0.72060   0.94372   1.000
    H119    H    0.19320   0.68710   0.98190   1.000
    C114    C    0.11564   0.67430   0.88425   1.000
    H120    H    0.11290   0.60310   0.87430   1.000
    N75     N    0.24104   0.05300   0.06624   1.000
    N76     N    0.25656   0.17990   0.14552   1.000
    C115    C    0.21629   0.11240   0.10139   1.000
    H121    H    0.17370   0.10700   0.09550   1.000
    C116    C    0.31220   0.16210   0.13810   1.000
    H122    H    0.35070   0.19780   0.16250   1.000
    C117    C    0.30254   0.08490   0.09020   1.000
    H123    H    0.33330   0.05730   0.07570   1.000
    H124    H    0.97110   0.33880   0.78680   1.000
    C118    C    0.97630   0.49340   0.78510   1.000
    H125    H    0.95680   0.51600   0.81560   1.000
    C119    C    0.98560   0.39580   0.77090   1.000
    H126    H    0.97200   0.33760   0.78860   1.000
    N77     N    0.98390   0.39320   0.77110   1.000
    Zn8     Zn   0.73229   0.20414   0.69195   1.000
    Cu8     Cu   0.69689   0.43553   0.00317   1.000
    N78     N    0.77917   0.18960   0.79803   1.000
    N79     N    0.80794   0.13480   0.91163   1.000
    C120    C    0.76521   0.13020   0.84330   1.000
    H127    H    0.72850   0.08890   0.82830   1.000
    C121    C    0.85251   0.20210   0.90981   1.000
    H128    H    0.88940   0.22210   0.95020   1.000
    C122    C    0.83535   0.23560   0.84098   1.000
    H129    H    0.85820   0.28260   0.82520   1.000
    N80     N    0.74848   0.07900   0.64636   1.000
    N81     N    0.77396   0.97940   0.57266   1.000
    C123    C    0.76371   0.07430   0.58943   1.000
    H130    H    0.76690   0.13290   0.56350   1.000
    C124    C    0.74885   0.97820   0.66730   1.000
    H131    H    0.73950   0.95520   0.70630   1.000
    C125    C    0.76467   0.91800   0.62310   1.000
    H132    H    0.76870   0.84580   0.62610   1.000
    N82     N    0.64178   0.22310   0.67194   1.000
    N83     N    0.55484   0.23560   0.69395   1.000
    C126    C    0.61775   0.22980   0.72160   1.000
    H133    H    0.64320   0.23030   0.77200   1.000
    C127    C    0.58966   0.22580   0.60750   1.000
    H134    H    0.59040   0.22280   0.56110   1.000
    C128    C    0.53725   0.23330   0.62040   1.000
    H135    H    0.49530   0.23660   0.58470   1.000
    N84     N    0.57594   0.24730   0.84153   1.000
    N85     N    0.64811   0.32360   0.93890   1.000
    C129    C    0.59751   0.33500   0.87641   1.000
    H136    H    0.57880   0.39940   0.85860   1.000
    C130    C    0.65993   0.22060   0.94372   1.000
    H137    H    0.69320   0.18710   0.98190   1.000
    C131    C    0.61564   0.17430   0.88425   1.000
    H138    H    0.61290   0.10310   0.87430   1.000
    N86     N    0.74104   0.55300   0.06624   1.000
    N87     N    0.75656   0.67990   0.14552   1.000
    C132    C    0.71629   0.61240   0.10139   1.000
    H139    H    0.67370   0.60700   0.09550   1.000
    C133    C    0.81220   0.66210   0.13810   1.000
    H140    H    0.85070   0.69780   0.16250   1.000
    C134    C    0.80254   0.58490   0.09020   1.000
    H141    H    0.83330   0.55730   0.07570   1.000
    H142    H    0.47110   0.83880   0.78680   1.000
    C135    C    0.47630   0.99340   0.78510   1.000
    H143    H    0.45680   0.01600   0.81560   1.000
    C136    C    0.48560   0.89580   0.77090   1.000
    H144    H    0.47200   0.83760   0.78860   1.000
    N88     N    0.48390   0.89320   0.77110   1.000
    Cu9     Cu   0.00000   0.27299   0.25000   1.000
    N89     N    0.00000   0.44500   0.25000   1.000
    Cu10    Cu   0.50000   0.77299   0.25000   1.000
    N90     N    0.50000   0.94500   0.25000   1.000
    Cu11    Cu   0.00000   0.72701   0.75000   1.000
    N91     N    0.00000   0.55500   0.75000   1.000
    Cu12    Cu   0.50000   0.22701   0.75000   1.000
    N92     N    0.50000   0.05500   0.75000   1.000
