data_functionalizedCrystal
_audit_creation_method	'EQeq! by Chris Wilmer'
_symmetry_space_group_name_H-M	'P1'
_symmetry_Int_Tables_number	1
_symmetry_cell_setting	triclinic
loop_
_symmetry_equiv_pos_as_xyz
  x,y,z
_cell_length_a	19.0495
_cell_length_b	19.0495
_cell_length_c	36.0366
_cell_angle_alpha	90
_cell_angle_beta	90
_cell_angle_gamma	120
loop_
_atom_site_label
_atom_site_type_symbol
_atom_site_fract_x
_atom_site_fract_y
_atom_site_fract_z
_atom_site_charge
Mof_Zn	Zn	0.95216	0.47608	0.96601	1.221
Mof_Zn	Zn	0.52392	0.47608	0.53399	1.221
Mof_Zn	Zn	0.52392	0.04784	0.96601	1.221
Mof_Zn	Zn	0.47608	0.52392	0.03399	1.221
Mof_Zn	Zn	0.52392	0.47608	0.96601	1.221
Mof_Zn	Zn	0.04784	0.52392	0.46601	1.221
Mof_Zn	Zn	0.47608	0.95216	0.46601	1.221
Mof_Zn	Zn	0.04784	0.52392	0.03399	1.221
Mof_Zn	Zn	0.47608	0.95216	0.03399	1.221
Mof_Zn	Zn	0.52392	0.04784	0.53399	1.221
Mof_Zn	Zn	0.47608	0.52392	0.46601	1.221
Mof_Zn	Zn	0.95216	0.47608	0.53399	1.221
Mof_Cr	Cr	0.55058	0.27529	0.75	2.093
Mof_Cr	Cr	0.72471	0.27529	0.75	2.093
Mof_Cr	Cr	0.27529	0.55058	0.25	2.094
Mof_Cr	Cr	0.44942	0.72471	0.25	2.093
Mof_Cr	Cr	0.27529	0.72471	0.25	2.093
Mof_Cr	Cr	0.72471	0.44942	0.75	2.094
Mof_H 	H 	0.0509	0.2768	0.629	-0.149
Mof_H 	H 	0.2213	0.1863	0.3479	0.006
Mof_H 	H 	0.6762	0.1423	0.848	0.032
Mof_H 	H 	0.9061	0.3523	0.9084	0.014
Mof_H 	H 	0.0243	0.7637	0.8851	0.137
Mof_H 	H 	0.7637	0.0243	0.3851	0.137
Mof_H 	H 	0.7787	0.965	0.8479	0.006
Mof_H 	H 	0.035	0.8137	0.6521	0.006
Mof_H 	H 	0.3523	0.4462	0.0916	0.014
Mof_H 	H 	0.0885	0.702	0.6414	0.099
Mof_H 	H 	0.2474	0.087	0.1617	0.072
Mof_H 	H 	0.7839	0.5378	0.162	-0.097
Mof_H 	H 	0.022	0.7974	0.8943	-0.147
Mof_H 	H 	0.3922	0.0884	0.0906	-0.002
Mof_H 	H 	0.9232	0.281	0.0807	0.005
Mof_H 	H 	0.6078	0.9116	0.9094	-0.002
Mof_H 	H 	0.9061	0.5538	0.9084	0.014
Mof_H 	H 	0.5817	0.7033	0.8479	-0.185
Mof_H 	H 	0.2967	0.8784	0.6521	-0.185
Mof_H 	H 	0.23405	0.76595	0.5001	0.026
Mof_H 	H 	0.2026	0.2246	0.6057	-0.147
Mof_H 	H 	0.5538	0.6477	0.4084	0.014
Mof_H 	H 	0.0243	0.2606	0.6149	0.137
Mof_H 	H 	0.0669	0.7504	0.8497	0.085
Mof_H 	H 	0.6129	0.8478	0.6864	-0.09
Mof_H 	H 	0.3865	0.0885	0.3586	0.099
Mof_H 	H 	0.4661	0.3238	0.652	0.032
Mof_H 	H 	0.4661	0.1423	0.848	0.032
Mof_H 	H 	0.2984	0.11	0.324	0.122
Mof_H 	H 	0.2312	0.1312	0.1193	-0.145
Mof_H 	H 	0.702	0.0885	0.3586	0.099
Mof_H 	H 	0.9331	0.2496	0.1503	0.085
Mof_H 	H 	0.23405	0.4681	0.9999	0.025
Mof_H 	H 	0.9506	0.71	0.141	0.139
Mof_H 	H 	0.9115	0.6135	0.3586	0.099
Mof_H 	H 	0.7419	0.6608	0.1453	-0.069
Mof_H 	H 	0.6592	0.7546	0.6773	0.034
Mof_H 	H 	0.6835	0.7504	0.8497	0.084
Mof_H 	H 	0.7016	0.89	0.824	0.121
Mof_H 	H 	0.8651	0.0406	0.1365	-0.073
Mof_H 	H 	0.3578	0.0768	0.0807	0.004
Mof_H 	H 	0.3523	0.9061	0.0916	0.013
Mof_H 	H 	0.3038	0.9116	0.5906	-0.003
Mof_H 	H 	0.3408	0.2454	0.1773	0.034
Mof_H 	H 	0.298	0.3865	0.8586	0.098
Mof_H 	H 	0.6422	0.9232	0.5807	0.004
Mof_H 	H 	0.1312	0.2312	0.8807	-0.146
Mof_H 	H 	0.4681	0.23405	0.4999	0.025
Mof_H 	H 	0.8396	0.7526	0.1617	0.071
Mof_H 	H 	0.3922	0.3038	0.4094	-0.003
Mof_H 	H 	0.29	0.2406	0.141	0.139
Mof_H 	H 	0.2406	0.9506	0.641	0.139
Mof_H 	H 	0.9	0.7688	0.1193	-0.146
Mof_H 	H 	0.2161	0.7539	0.838	-0.098
Mof_H 	H 	0.7741	0.7232	0.371	-0.15
Mof_H 	H 	0.2967	0.4183	0.8479	-0.186
Mof_H 	H 	0.9331	0.6835	0.3497	0.083
Mof_H 	H 	0.0243	0.7637	0.6149	0.136
Mof_H 	H 	0.3578	0.281	0.0807	0.004
Mof_H 	H 	0.7504	0.0669	0.1503	0.084
Mof_H 	H 	0.7594	0.0494	0.359	0.139
Mof_H 	H 	0.8137	0.035	0.1521	0.005
Mof_H 	H 	0.9	0.1312	0.3807	-0.146
Mof_H 	H 	0.0406	0.1755	0.6365	-0.073
Mof_H 	H 	0.2454	0.9046	0.6773	0.034
Mof_H 	H 	0.71	0.7594	0.641	0.139
Mof_H 	H 	0.7594	0.71	0.141	0.139
Mof_H 	H 	0.7914	0.1743	0.1575	-0.187
Mof_H 	H 	0.1087	0.1773	0.5945	-0.062
Mof_H 	H 	0.3392	0.0811	0.1453	-0.07
Mof_H 	H 	0.76595	0.5319	0.4999	0.025
Mof_H 	H 	0.8245	0.8651	0.8635	-0.073
Mof_H 	H 	0.3038	0.9116	0.9094	-0.003
Mof_H 	H 	0.8116	0.7016	0.324	0.121
Mof_H 	H 	0.6962	0.6078	0.0906	-0.003
Mof_H 	H 	0.6608	0.7419	0.8547	-0.07
Mof_H 	H 	0.2086	0.3829	0.6575	-0.187
Mof_H 	H 	0.6135	0.702	0.6414	0.098
Mof_H 	H 	0.2349	0.8478	0.6864	-0.091
Mof_H 	H 	0.2581	0.3392	0.8547	-0.07
Mof_H 	H 	0.978	0.2026	0.3943	-0.148
Mof_H 	H 	0.8784	0.2967	0.3479	-0.186
Mof_H 	H 	0.3829	0.1743	0.3425	-0.187
Mof_H 	H 	0.5378	0.7839	0.838	-0.098
Mof_H 	H 	0.2474	0.087	0.3383	0.071
Mof_H 	H 	0.7526	0.8396	0.6617	0.071
Mof_H 	H 	0.0954	0.7546	0.8227	0.034
Mof_H 	H 	0.2161	0.4622	0.838	-0.098
Mof_H 	H 	0.1216	0.4183	0.6521	-0.186
Mof_H 	H 	0.8688	0.1	0.1193	-0.146
Mof_H 	H 	0.1755	0.1349	0.1365	-0.073
Mof_H 	H 	0.11	0.8116	0.676	0.121
Mof_H 	H 	0.8688	0.1	0.3807	-0.146
Mof_H 	H 	0.1216	0.4183	0.8479	-0.186
Mof_H 	H 	0.5339	0.6762	0.348	0.031
Mof_H 	H 	0.6171	0.8257	0.6575	-0.187
Mof_H 	H 	0.7754	0.978	0.8943	-0.148
Mof_H 	H 	0.11	0.2984	0.676	0.121
Mof_H 	H 	0.7232	0.9491	0.871	-0.15
Mof_H 	H 	0.1349	0.9594	0.6365	-0.073
Mof_H 	H 	0.8116	0.7016	0.176	0.121
Mof_H 	H 	0.9491	0.7232	0.129	-0.15
Mof_H 	H 	0.2259	0.2768	0.871	-0.15
Mof_H 	H 	0.7526	0.913	0.8383	0.071
Mof_H 	H 	0.0406	0.8651	0.6365	-0.073
Mof_H 	H 	0.3829	0.1743	0.1575	-0.187
Mof_H 	H 	0.6135	0.9115	0.8586	0.098
Mof_H 	H 	0.8784	0.2967	0.1521	-0.186
Mof_H 	H 	0.978	0.2026	0.1057	-0.148
Mof_H 	H 	0.7394	0.7637	0.6149	0.136
Mof_H 	H 	0.3871	0.1522	0.3136	-0.091
Mof_H 	H 	0.3871	0.2349	0.3136	-0.091
Mof_H 	H 	0.2461	0.4622	0.838	-0.098
Mof_H 	H 	0.6135	0.9115	0.6414	0.098
Mof_H 	H 	0.1884	0.2984	0.824	0.121
Mof_H 	H 	0.1755	0.0406	0.3635	-0.073
Mof_H 	H 	0.2967	0.8784	0.8479	-0.186
Mof_H 	H 	0.7637	0.0243	0.1149	0.136
Mof_H 	H 	0.0686	0.1773	0.5945	-0.062
Mof_H 	H 	0.9232	0.6422	0.0807	0.004
Mof_H 	H 	0.4661	0.1423	0.652	0.031
Mof_H 	H 	0.8913	0.0686	0.4055	-0.062
Mof_H 	H 	0.6592	0.9046	0.8227	0.034
Mof_H 	H 	0.3392	0.0811	0.3547	-0.07
Mof_H 	H 	0.1	0.2312	0.6193	-0.146
Mof_H 	H 	0.7914	0.1743	0.3425	-0.187
Mof_H 	H 	0.6962	0.6078	0.4094	-0.003
Mof_H 	H 	0.7594	0.71	0.359	0.139
Mof_H 	H 	0.9046	0.2454	0.3227	0.034
Mof_H 	H 	0.5817	0.7033	0.6521	-0.186
Mof_H 	H 	0.2984	0.1884	0.176	0.121
Mof_H 	H 	0.8137	0.035	0.3479	0.005
Mof_H 	H 	0.7594	0.0494	0.141	0.139
Mof_H 	H 	0.8396	0.087	0.3383	0.071
Mof_H 	H 	0.7504	0.0669	0.3497	0.084
Mof_H 	H 	0.6171	0.7914	0.6575	-0.187
Mof_H 	H 	0.1312	0.9	0.6193	-0.146
Mof_H 	H 	0.3578	0.281	0.4193	0.004
Mof_H 	H 	0.022	0.2246	0.6057	-0.148
Mof_H 	H 	0.1423	0.4661	0.152	0.031
Mof_H 	H 	0.9331	0.6835	0.1503	0.083
Mof_H 	H 	0.8396	0.087	0.1617	0.071
Mof_H 	H 	0.7526	0.8396	0.8383	0.071
Mof_H 	H 	0.7741	0.7232	0.129	-0.15
Mof_H 	H 	0.9	0.7688	0.3807	-0.146
Mof_H 	H 	0.29	0.2406	0.359	0.139
Mof_H 	H 	0.719	0.6422	0.4193	0.004
Mof_H 	H 	0.2246	0.2026	0.1057	-0.148
Mof_H 	H 	0.1349	0.1755	0.6365	-0.073
Mof_H 	H 	0.8396	0.7526	0.3383	0.071
Mof_H 	H 	0.0954	0.7546	0.6773	0.034
Mof_H 	H 	0.0768	0.3578	0.9193	0.004
Mof_H 	H 	0.2349	0.8478	0.8136	-0.091
Mof_H 	H 	0.3523	0.9061	0.4084	0.013
Mof_H 	H 	0.3578	0.0768	0.4193	0.004
Mof_H 	H 	0.0811	0.3392	0.6453	-0.07
Mof_H 	H 	0.0884	0.3922	0.5906	-0.003
Mof_H 	H 	0.8651	0.0406	0.3635	-0.073
Mof_H 	H 	0.9061	0.5538	0.5916	0.013
Mof_H 	H 	0.9115	0.298	0.1414	0.098
Mof_H 	H 	0.7419	0.6608	0.3547	-0.07
Mof_H 	H 	0.9115	0.6135	0.1414	0.098
Mof_H 	H 	0.0939	0.6477	0.4084	0.013
Mof_H 	H 	0.9506	0.71	0.359	0.138
Mof_H 	H 	0.5378	0.7539	0.662	-0.098
Mof_H 	H 	0.9331	0.2496	0.3497	0.084
Mof_H 	H 	0.1522	0.3871	0.8136	-0.091
Mof_H 	H 	0.087	0.2474	0.8383	0.071
Mof_H 	H 	0.2312	0.1312	0.3807	-0.146
Mof_H 	H 	0.6762	0.1423	0.652	0.031
Mof_H 	H 	0.2086	0.8257	0.8425	-0.187
Mof_H 	H 	0.6762	0.5339	0.848	0.031
Mof_H 	H 	0.3865	0.0885	0.1414	0.098
Mof_H 	H 	0.0494	0.7594	0.859	0.139
Mof_H 	H 	0.7033	0.5817	0.3479	-0.186
Mof_H 	H 	0.1743	0.7914	0.8425	-0.187
Mof_H 	H 	0.2363	0.2606	0.8851	0.136
Mof_H 	H 	0.9061	0.3523	0.5916	0.013
Mof_H 	H 	0.9232	0.6422	0.4193	0.004
Mof_H 	H 	0.3392	0.2581	0.1453	-0.07
Mof_H 	H 	0.8577	0.5339	0.848	0.031
Mof_H 	H 	0.281	0.3578	0.5807	0.004
Mof_H 	H 	0.5339	0.6762	0.152	0.031
Mof_H 	H 	0.5538	0.6477	0.0916	0.013
Mof_H 	H 	0.5319	0.76595	0.5001	0.025
Mof_H 	H 	0.0954	0.3408	0.6773	0.034
Mof_H 	H 	0.9232	0.281	0.4193	0.004
Mof_H 	H 	0.3922	0.0884	0.4094	-0.003
Mof_H 	H 	0.7754	0.7974	0.8943	-0.148
Mof_H 	H 	0.0885	0.3865	0.8586	0.098
Mof_H 	H 	0.0885	0.702	0.8586	0.098
Mof_H 	H 	0.3238	0.4661	0.152	0.031
Mof_H 	H 	0.2461	0.7839	0.662	-0.098
Mof_H 	H 	0.3523	0.4462	0.4084	0.013
Mof_H 	H 	0.7232	0.7741	0.629	-0.15
Mof_H 	H 	0.6129	0.7651	0.8136	-0.091
Mof_H 	H 	0.2213	0.1863	0.1521	0.005
Mof_H 	H 	0.0939	0.6477	0.0916	0.013
Mof_H 	H 	0.71	0.9506	0.859	0.138
Mof_H 	H 	0.8478	0.2349	0.3136	-0.091
Mof_H 	H 	0.2606	0.2363	0.3851	0.136
Mof_H 	H 	0.1863	0.2213	0.8479	0.005
Mof_H 	H 	0.7688	0.9	0.8807	-0.146
Mof_H 	H 	0.7504	0.6835	0.3497	0.084
Mof_H 	H 	0.2086	0.3829	0.8425	-0.187
Mof_H 	H 	0.7394	0.9757	0.8851	0.136
Mof_H 	H 	0.4183	0.2967	0.1521	-0.186
Mof_H 	H 	0.7016	0.8116	0.676	0.121
Mof_H 	H 	0.8245	0.9594	0.8635	-0.073
Mof_H 	H 	0.0406	0.8651	0.8635	-0.073
Mof_H 	H 	0.2461	0.7839	0.838	-0.098
Mof_H 	H 	0.702	0.0885	0.1414	0.098
Mof_H 	H 	0.9594	0.8245	0.3635	-0.073
Mof_H 	H 	0.5378	0.7839	0.662	-0.098
Mof_H 	H 	0.9116	0.3038	0.0906	-0.003
Mof_H 	H 	0.8227	0.9314	0.9055	-0.062
Mof_H 	H 	0.8478	0.6129	0.1864	-0.091
Mof_H 	H 	0.8784	0.5817	0.1521	-0.186
Mof_H 	H 	0.4183	0.1216	0.1521	-0.186
Mof_H 	H 	0.6477	0.0939	0.5916	0.013
Mof_H 	H 	0.6171	0.8257	0.8425	-0.187
Mof_H 	H 	0.0686	0.8913	0.9055	-0.062
Mof_H 	H 	0.7839	0.2461	0.162	-0.098
Mof_H 	H 	0.4462	0.0939	0.5916	0.013
Mof_H 	H 	0.0509	0.7741	0.871	-0.15
Mof_H 	H 	0.4622	0.2161	0.338	-0.098
Mof_H 	H 	0.5817	0.8784	0.8479	-0.186
Mof_H 	H 	0.1884	0.89	0.824	0.121
Mof_H 	H 	0.5339	0.8577	0.152	0.031
Mof_H 	H 	0.9757	0.2363	0.1149	0.136
Mof_H 	H 	0.7651	0.6129	0.1864	-0.091
Mof_H 	H 	0.3829	0.2086	0.1575	-0.187
Mof_H 	H 	0.7539	0.2161	0.338	-0.098
Mof_H 	H 	0.6835	0.7504	0.6503	0.084
Mof_H 	H 	0.7546	0.6592	0.3227	0.034
Mof_H 	H 	0.3165	0.0669	0.1503	0.083
Mof_H 	H 	0.23405	0.4681	0.5001	0.025
Mof_H 	H 	0.913	0.1604	0.3383	0.071
Mof_H 	H 	0.719	0.0768	0.4193	0.004
Mof_H 	H 	0.7651	0.1522	0.1864	-0.091
Mof_H 	H 	0.6078	0.9116	0.5906	-0.003
Mof_H 	H 	0.8245	0.9594	0.6365	-0.073
Mof_H 	H 	0.2606	0.0243	0.3851	0.136
Mof_H 	H 	0.89	0.1884	0.176	0.121
Mof_H 	H 	0.913	0.7526	0.3383	0.071
Mof_H 	H 	0.7394	0.7637	0.8851	0.136
Mof_H 	H 	0.2496	0.9331	0.8497	0.084
Mof_H 	H 	0.8688	0.7688	0.1193	-0.146
Mof_H 	H 	0.9189	0.6608	0.1453	-0.07
Mof_H 	H 	0.2026	0.2246	0.8943	-0.148
Mof_H 	H 	0.298	0.9115	0.8586	0.098
Mof_H 	H 	0.3408	0.0954	0.1773	0.034
Mof_H 	H 	0.3165	0.2496	0.3497	0.084
Mof_H 	H 	0.7394	0.9757	0.6149	0.136
Mof_H 	H 	0.8137	0.7787	0.3479	0.005
Mof_H 	H 	0.281	0.9232	0.9193	0.004
Mof_H 	H 	0.2581	0.9189	0.8547	-0.07
Mof_H 	H 	0.8257	0.6171	0.3425	-0.187
Mof_H 	H 	0.6592	0.7546	0.8227	0.034
Mof_H 	H 	0.8577	0.3238	0.652	0.031
Mof_H 	H 	0.2581	0.9189	0.6453	-0.07
Mof_H 	H 	0.1863	0.965	0.8479	0.005
Mof_H 	H 	0.9314	0.1087	0.4055	-0.062
Mof_H 	H 	0.1773	0.1087	0.0945	-0.062
Mof_H 	H 	0.2768	0.0509	0.129	-0.15
Mof_H 	H 	0.2086	0.8257	0.6575	-0.187
Mof_H 	H 	0.6592	0.9046	0.6773	0.034
Mof_H 	H 	0.2026	0.978	0.8943	-0.148
Mof_H 	H 	0.5319	0.76595	0.9999	0.024
Mof_H 	H 	0.7914	0.6171	0.1575	-0.187
Mof_H 	H 	0.1884	0.89	0.676	0.121
Mof_H 	H 	0.7637	0.7394	0.1149	0.136
Mof_H 	H 	0.087	0.8396	0.6617	0.071
Mof_H 	H 	0.281	0.9232	0.5807	0.004
Mof_H 	H 	0.9046	0.6592	0.3227	0.034
Mof_H 	H 	0.0884	0.6962	0.9094	-0.003
Mof_H 	H 	0.2259	0.9491	0.871	-0.15
Mof_H 	H 	0.2363	0.9757	0.8851	0.136
Mof_H 	H 	0.0884	0.6962	0.5906	-0.003
Mof_H 	H 	0.0768	0.719	0.5807	0.004
Mof_H 	H 	0.0686	0.1773	0.9055	-0.062
Mof_H 	H 	0.9	0.1312	0.1193	-0.146
Mof_H 	H 	0.965	0.1863	0.3479	0.005
Mof_H 	H 	0.8688	0.7688	0.3807	-0.146
Mof_H 	H 	0.71	0.9506	0.641	0.138
Mof_H 	H 	0.9491	0.2259	0.129	-0.15
Mof_H 	H 	0.0884	0.3922	0.9094	-0.003
Mof_H 	H 	0.2461	0.4622	0.662	-0.098
Mof_H 	H 	0.9757	0.7394	0.1149	0.136
Mof_H 	H 	0.2349	0.3871	0.6864	-0.091
Mof_H 	H 	0.6608	0.9189	0.6453	-0.07
Mof_H 	H 	0.2312	0.1	0.1193	-0.146
Mof_H 	H 	0.978	0.7754	0.3943	-0.148
Mof_H 	H 	0.3871	0.2349	0.1864	-0.091
Mof_H 	H 	0.1604	0.913	0.6617	0.071
Mof_H 	H 	0.7526	0.913	0.6617	0.071
Mof_H 	H 	0.9491	0.2259	0.371	-0.15
Mof_H 	H 	0.2454	0.3408	0.8227	0.034
Mof_H 	H 	0.5538	0.9061	0.4084	0.013
Mof_H 	H 	0.6962	0.0884	0.0906	-0.003
Mof_H 	H 	0.035	0.2213	0.8479	0.005
Mof_H 	H 	0.7974	0.022	0.3943	-0.148
Mof_H 	H 	0.702	0.6135	0.3586	0.098
Mof_H 	H 	0.76595	0.23405	0.0001	0.024
Mof_H 	H 	0.29	0.0494	0.359	0.138
Mof_H 	H 	0.965	0.1863	0.1521	0.005
Mof_H 	H 	0.2246	0.2026	0.3943	-0.148
Mof_H 	H 	0.719	0.6422	0.0807	0.004
Mof_H 	H 	0.6422	0.719	0.5807	0.004
Mof_H 	H 	0.9116	0.6078	0.0906	-0.003
Mof_H 	H 	0.2406	0.29	0.859	0.139
Mof_H 	H 	0.913	0.1604	0.1617	0.071
Mof_H 	H 	0.9506	0.2406	0.359	0.139
Mof_H 	H 	0.2474	0.1604	0.3383	0.071
Mof_H 	H 	0.0939	0.4462	0.0916	0.013
Mof_H 	H 	0.8913	0.8227	0.0945	-0.062
Mof_H 	H 	0.1423	0.6762	0.152	0.031
Mof_H 	H 	0.2026	0.978	0.6057	-0.148
Mof_H 	H 	0.6078	0.6962	0.5906	-0.003
Mof_H 	H 	0.2768	0.2259	0.129	-0.15
Mof_H 	H 	0.7419	0.0811	0.3547	-0.07
Mof_H 	H 	0.6835	0.9331	0.8497	0.083
Mof_H 	H 	0.6477	0.5538	0.5916	0.013
Mof_H 	H 	0.4462	0.3523	0.5916	0.013
Mof_H 	H 	0.7539	0.5378	0.162	-0.098
Mof_H 	H 	0.8227	0.8913	0.5945	-0.062
Mof_H 	H 	0.1087	0.1773	0.9055	-0.062
Mof_H 	H 	0.9594	0.1349	0.1365	-0.073
Mof_H 	H 	0.7741	0.0509	0.371	-0.15
Mof_H 	H 	0.7546	0.0954	0.3227	0.034
Mof_H 	H 	0.1423	0.4661	0.348	0.031
Mof_H 	H 	0.1743	0.7914	0.6575	-0.187
Mof_H 	H 	0.0243	0.2606	0.8851	0.136
Mof_H 	H 	0.9314	0.8227	0.4055	-0.062
Mof_H 	H 	0.8257	0.2086	0.1575	-0.187
Mof_H 	H 	0.2161	0.7539	0.662	-0.098
Mof_H 	H 	0.1349	0.9594	0.8635	-0.073
Mof_H 	H 	0.7033	0.1216	0.1521	-0.186
Mof_H 	H 	0.1349	0.1755	0.8635	-0.073
Mof_H 	H 	0.719	0.0768	0.0807	0.004
Mof_H 	H 	0.89	0.7016	0.176	0.121
Mof_H 	H 	0.9594	0.8245	0.1365	-0.073
Mof_H 	H 	0.8651	0.8245	0.3635	-0.073
Mof_H 	H 	0.0509	0.7741	0.629	-0.15
Mof_H 	H 	0.8478	0.2349	0.1864	-0.091
Mof_H 	H 	0.1863	0.2213	0.6521	0.005
Mof_H 	H 	0.4622	0.2461	0.338	-0.098
Mof_H 	H 	0.022	0.7974	0.6057	-0.148
Mof_H 	H 	0.3038	0.3922	0.9094	-0.003
Mof_H 	H 	0.0811	0.3392	0.8547	-0.07
Mof_H 	H 	0.1884	0.2984	0.676	0.121
Mof_H 	H 	0.3038	0.3922	0.5906	-0.003
Mof_H 	H 	0.087	0.2474	0.6617	0.071
Mof_H 	H 	0.9115	0.298	0.3586	0.098
Mof_H 	H 	0.7914	0.6171	0.3425	-0.187
Mof_H 	H 	0.0954	0.3408	0.8227	0.034
Mof_H 	H 	0.8577	0.5339	0.652	0.031
Mof_H 	H 	0.9189	0.2581	0.3547	-0.07
Mof_H 	H 	0.087	0.8396	0.8383	0.071
Mof_H 	H 	0.11	0.2984	0.824	0.121
Mof_H 	H 	0.8116	0.11	0.176	0.121
Mof_H 	H 	0.965	0.7787	0.3479	0.005
Mof_H 	H 	0.8913	0.0686	0.0945	-0.062
Mof_H 	H 	0.7974	0.7754	0.3943	-0.148
Mof_H 	H 	0.6129	0.8478	0.8136	-0.091
Mof_H 	H 	0.3871	0.1522	0.1864	-0.091
Mof_H 	H 	0.11	0.8116	0.824	0.121
Mof_H 	H 	0.1773	0.0686	0.4055	-0.062
Mof_H 	H 	0.6422	0.719	0.9193	0.004
Mof_H 	H 	0.2406	0.9506	0.859	0.139
Mof_H 	H 	0.6835	0.9331	0.6503	0.083
Mof_H 	H 	0.2496	0.3165	0.8497	0.084
Mof_H 	H 	0.7754	0.7974	0.6057	-0.148
Mof_H 	H 	0.4462	0.3523	0.9084	0.013
Mof_H 	H 	0.022	0.2246	0.8943	-0.148
Mof_H 	H 	0.7539	0.2161	0.162	-0.098
Mof_H 	H 	0.2312	0.1	0.3807	-0.146
Mof_H 	H 	0.1773	0.0686	0.0945	-0.062
Mof_H 	H 	0.7974	0.7754	0.1057	-0.148
Mof_H 	H 	0.8913	0.8227	0.4055	-0.062
Mof_H 	H 	0.3865	0.298	0.1414	0.098
Mof_H 	H 	0.8116	0.11	0.324	0.121
Mof_H 	H 	0.7232	0.7741	0.871	-0.15
Mof_H 	H 	0.7754	0.978	0.6057	-0.148
Mof_H 	H 	0.2967	0.4183	0.6521	-0.186
Mof_H 	H 	0.2454	0.3408	0.6773	0.034
Mof_H 	H 	0.2213	0.035	0.3479	0.005
Mof_H 	H 	0.4462	0.0939	0.9084	0.013
Mof_H 	H 	0.4622	0.2461	0.162	-0.098
Mof_H 	H 	0.4661	0.3238	0.848	0.031
Mof_H 	H 	0.5378	0.7539	0.838	-0.098
Mof_H 	H 	0.9506	0.2406	0.141	0.139
Mof_H 	H 	0.8651	0.8245	0.1365	-0.073
Mof_H 	H 	0.7787	0.8137	0.8479	0.005
Mof_H 	H 	0.6477	0.5538	0.9084	0.013
Mof_H 	H 	0.89	0.7016	0.324	0.121
Mof_H 	H 	0.7033	0.1216	0.3479	-0.186
Mof_H 	H 	0.3238	0.8577	0.152	0.031
Mof_H 	H 	0.7787	0.965	0.6521	0.005
Mof_H 	H 	0.0406	0.1755	0.8635	-0.073
Mof_H 	H 	0.8257	0.2086	0.3425	-0.187
Mof_H 	H 	0.9314	0.8227	0.0945	-0.062
Mof_H 	H 	0.3408	0.2454	0.3227	0.034
Mof_H 	H 	0.0669	0.3165	0.6503	0.083
Mof_H 	H 	0.71	0.7594	0.859	0.139
Mof_H 	H 	0.6129	0.7651	0.6864	-0.091
Mof_H 	H 	0.1604	0.913	0.8383	0.071
Mof_H 	H 	0.7546	0.0954	0.1773	0.034
Mof_H 	H 	0.7741	0.0509	0.129	-0.15
Mof_H 	H 	0.9594	0.1349	0.3635	-0.073
Mof_H 	H 	0.965	0.7787	0.1521	0.005
Mof_H 	H 	0.7539	0.5378	0.338	-0.098
Mof_H 	H 	0.9189	0.2581	0.1453	-0.07
Mof_H 	H 	0.2349	0.3871	0.8136	-0.091
Mof_H 	H 	0.2581	0.3392	0.6453	-0.07
Mof_H 	H 	0.7419	0.0811	0.1453	-0.07
Mof_H 	H 	0.2768	0.2259	0.371	-0.15
Mof_H 	H 	0.1743	0.3829	0.6575	-0.187
Mof_H 	H 	0.0494	0.7594	0.641	0.139
Mof_H 	H 	0.0811	0.7419	0.6453	-0.07
Mof_H 	H 	0.1423	0.6762	0.348	0.031
Mof_H 	H 	0.8245	0.8651	0.6365	-0.073
Mof_H 	H 	0.0939	0.4462	0.4084	0.013
Mof_H 	H 	0.0509	0.2768	0.871	-0.15
Mof_H 	H 	0.2496	0.9331	0.6503	0.084
Mof_H 	H 	0.9046	0.6592	0.1773	0.034
Mof_H 	H 	0.1216	0.7033	0.8479	-0.186
Mof_H 	H 	0.9116	0.6078	0.4094	-0.003
Mof_H 	H 	0.7839	0.2461	0.338	-0.098
Mof_H 	H 	0.8577	0.3238	0.848	0.031
Mof_H 	H 	0.3238	0.8577	0.348	0.031
Mof_H 	H 	0.0686	0.8913	0.5945	-0.062
Mof_H 	H 	0.5339	0.8577	0.348	0.031
Mof_H 	H 	0.29	0.0494	0.141	0.138
Mof_H 	H 	0.6171	0.7914	0.8425	-0.187
Mof_H 	H 	0.1312	0.9	0.8807	-0.146
Mof_H 	H 	0.7033	0.5817	0.1521	-0.186
Mof_H 	H 	0.298	0.9115	0.6414	0.098
Mof_H 	H 	0.702	0.6135	0.1414	0.098
Mof_H 	H 	0.6608	0.7419	0.6453	-0.07
Mof_H 	H 	0.7974	0.022	0.1057	-0.148
Mof_H 	H 	0.9116	0.3038	0.4094	-0.003
Mof_H 	H 	0.2161	0.4622	0.662	-0.098
Mof_H 	H 	0.3392	0.2581	0.3547	-0.07
Mof_H 	H 	0.2496	0.3165	0.6503	0.084
Mof_H 	H 	0.035	0.2213	0.6521	0.005
Mof_H 	H 	0.0494	0.29	0.641	0.138
Mof_H 	H 	0.7232	0.9491	0.629	-0.15
Mof_H 	H 	0.1755	0.0406	0.1365	-0.073
Mof_H 	H 	0.4183	0.1216	0.3479	-0.186
Mof_H 	H 	0.76595	0.23405	0.4999	0.025
Mof_H 	H 	0.9757	0.7394	0.3851	0.136
Mof_H 	H 	0.6762	0.5339	0.652	0.031
Mof_H 	H 	0.8478	0.6129	0.3136	-0.091
Mof_H 	H 	0.9491	0.7232	0.371	-0.15
Mof_H 	H 	0.2454	0.9046	0.8227	0.034
Mof_H 	H 	0.4681	0.23405	0.0001	0.024
Mof_H 	H 	0.2246	0.022	0.1057	-0.148
Mof_H 	H 	0.1755	0.1349	0.3635	-0.073
Mof_H 	H 	0.7016	0.89	0.676	0.121
Mof_H 	H 	0.298	0.3865	0.6414	0.098
Mof_H 	H 	0.4622	0.2161	0.162	-0.098
Mof_H 	H 	0.0885	0.3865	0.6414	0.098
Mof_H 	H 	0.1087	0.9314	0.5945	-0.062
Mof_H 	H 	0.2474	0.1604	0.1617	0.071
Mof_H 	H 	0.1604	0.2474	0.8383	0.071
Mof_H 	H 	0.8227	0.9314	0.5945	-0.062
Mof_H 	H 	0.2259	0.9491	0.629	-0.15
Mof_H 	H 	0.0768	0.719	0.9193	0.004
Mof_H 	H 	0.7637	0.7394	0.3851	0.136
Mof_H 	H 	0.0669	0.3165	0.8497	0.083
Mof_H 	H 	0.1522	0.3871	0.6864	-0.091
Mof_H 	H 	0.6078	0.6962	0.9094	-0.003
Mof_H 	H 	0.7839	0.5378	0.338	-0.098
Mof_H 	H 	0.1087	0.9314	0.9055	-0.062
Mof_H 	H 	0.2768	0.0509	0.371	-0.15
Mof_H 	H 	0.1773	0.1087	0.4055	-0.062
Mof_H 	H 	0.6135	0.702	0.8586	0.098
Mof_H 	H 	0.6422	0.9232	0.9193	0.004
Mof_H 	H 	0.9314	0.1087	0.0945	-0.062
Mof_H 	H 	0.281	0.3578	0.9193	0.004
Mof_H 	H 	0.3922	0.3038	0.0906	-0.003
Mof_H 	H 	0.8227	0.8913	0.9055	-0.062
Mof_H 	H 	0.8257	0.6171	0.1575	-0.187
Mof_H 	H 	0.76595	0.5319	0.0001	0.024
Mof_H 	H 	0.2213	0.035	0.1521	0.005
Mof_H 	H 	0.7787	0.8137	0.6521	0.005
Mof_H 	H 	0.1	0.8688	0.8807	-0.146
Mof_H 	H 	0.6477	0.0939	0.9084	0.013
Mof_H 	H 	0.8137	0.7787	0.1521	0.005
Mof_H 	H 	0.5538	0.9061	0.0916	0.013
Mof_H 	H 	0.6608	0.9189	0.8547	-0.07
Mof_H 	H 	0.2363	0.9757	0.6149	0.136
Mof_H 	H 	0.2246	0.022	0.3943	-0.148
Mof_H 	H 	0.1	0.8688	0.6193	-0.146
Mof_H 	H 	0.3165	0.2496	0.1503	0.084
Mof_H 	H 	0.3408	0.0954	0.3227	0.034
Mof_H 	H 	0.1216	0.7033	0.6521	-0.186
Mof_H 	H 	0.9189	0.6608	0.3547	-0.07
Mof_H 	H 	0.0811	0.7419	0.8547	-0.07
Mof_H 	H 	0.89	0.1884	0.324	0.121
Mof_H 	H 	0.2606	0.0243	0.1149	0.136
Mof_H 	H 	0.7651	0.1522	0.3136	-0.091
Mof_H 	H 	0.1604	0.2474	0.6617	0.071
Mof_H 	H 	0.3165	0.0669	0.3497	0.083
Mof_H 	H 	0.7546	0.6592	0.1773	0.034
Mof_H 	H 	0.6962	0.0884	0.4094	-0.003
Mof_H 	H 	0.1	0.2312	0.8807	-0.146
Mof_H 	H 	0.978	0.7754	0.1057	-0.148
Mof_H 	H 	0.2406	0.29	0.641	0.139
Mof_H 	H 	0.3829	0.2086	0.3425	-0.187
Mof_H 	H 	0.7651	0.6129	0.3136	-0.091
Mof_H 	H 	0.2984	0.11	0.176	0.121
Mof_H 	H 	0.9757	0.2363	0.3851	0.136
Mof_H 	H 	0.7688	0.9	0.6193	-0.146
Mof_H 	H 	0.1522	0.7651	0.6864	-0.091
Mof_H 	H 	0.7688	0.8688	0.6193	-0.146
Mof_H 	H 	0.035	0.8137	0.8479	0.005
Mof_H 	H 	0.1863	0.965	0.6521	0.005
Mof_H 	H 	0.913	0.7526	0.1617	0.071
Mof_H 	H 	0.1312	0.2312	0.6193	-0.146
Mof_H 	H 	0.23405	0.76595	0.9999	0.024
Mof_H 	H 	0.0768	0.3578	0.5807	0.004
Mof_H 	H 	0.8784	0.5817	0.3479	-0.186
Mof_H 	H 	0.7688	0.8688	0.8807	-0.146
Mof_H 	H 	0.2259	0.2768	0.629	-0.15
Mof_H 	H 	0.0494	0.29	0.859	0.138
Mof_H 	H 	0.0669	0.7504	0.6503	0.084
Mof_H 	H 	0.3238	0.4661	0.348	0.031
Mof_H 	H 	0.7016	0.8116	0.824	0.121
Mof_H 	H 	0.4183	0.2967	0.3479	-0.186
Mof_H 	H 	0.1743	0.3829	0.8425	-0.187
Mof_H 	H 	0.5817	0.8784	0.6521	-0.186
Mof_H 	H 	0.1522	0.7651	0.8136	-0.091
Mof_H 	H 	0.7504	0.6835	0.1503	0.084
Mof_H 	H 	0.9046	0.2454	0.1773	0.034
Mof_H 	H 	0.2363	0.2606	0.6149	0.136
Mof_H 	H 	0.2606	0.2363	0.1149	0.136
Mof_H 	H 	0.2984	0.1884	0.324	0.121
Mof_H 	H 	0.3865	0.298	0.3586	0.098
Mof_C 	C 	0.3578	0.9031	0.52465	0.43
Mof_C 	C 	0.1044	0.61	0.39587	0.023
Mof_C 	C 	0.3578	0.4547	0.97535	0.43
Mof_C 	C 	0.8067	0.1933	0.4045	-0.163
Mof_C 	C 	0.21	0.941	0.8638	0.001
Mof_C 	C 	0.4944	0.39	0.60413	0.023
Mof_C 	C 	0.2464	0.341	0.6501	0.031
Mof_C 	C 	0.941	0.21	0.1362	0.001
Mof_C 	C 	0.059	0.79	0.8638	0.001
Mof_C 	C 	0.2229	0.7771	0.97559	0.115
Mof_C 	C 	0.82445	0.6489	0.3648	0.468
Mof_C 	C 	0.8956	0.39	0.89587	0.023
Mof_C 	C 	0.4101	0.1655	0.3387	0.491
Mof_C 	C 	0.2779	0.43	0.95836	-0.175
Mof_C 	C 	0.4946	0.6277	0.35974	-0.002
Mof_C 	C 	0.8639	0.5987	0.4219	0.079
Mof_C 	C 	0.5987	0.7348	0.9219	0.079
Mof_C 	C 	0.4013	0.1361	0.4219	0.079
Mof_C 	C 	0.0946	0.7536	0.6501	0.031
Mof_C 	C 	0.8524	0.7913	0.386	0.355
Mof_C 	C 	0.8479	0.57	0.45836	-0.175
Mof_C 	C 	0.7536	0.659	0.3499	0.031
Mof_C 	C 	0.17555	0.82445	0.8648	0.468
Mof_C 	C 	0.2229	0.7771	0.52441	0.115
Mof_C 	C 	0.827	0.7308	0.1364	-0.219
Mof_C 	C 	0.79	0.731	0.1362	0.001
Mof_C 	C 	0.5054	0.1331	0.85974	-0.002
Mof_C 	C 	0.8479	0.2779	0.04164	-0.175
Mof_C 	C 	0.4013	0.2652	0.0781	0.079
Mof_C 	C 	0.6277	0.1331	0.64026	-0.002
Mof_C 	C 	0.43	0.2779	0.45836	-0.175
Mof_C 	C 	0.125	0.795	0.8469	-0.422
Mof_C 	C 	0.7545	0.6253	0.4291	0.024
Mof_C 	C 	0.1361	0.4013	0.9219	0.079
Mof_C 	C 	0.1292	0.3747	0.5709	0.024
Mof_C 	C 	0.3578	0.9031	0.97535	0.43
Mof_C 	C 	0.6489	0.82445	0.6352	0.468
Mof_C 	C 	0.0611	0.2087	0.886	0.355
Mof_C 	C 	0.0969	0.4547	0.52465	0.43
Mof_C 	C 	0.6422	0.5453	0.02465	0.43
Mof_C 	C 	0.3723	0.8669	0.35974	-0.002
Mof_C 	C 	0.7771	0.5542	0.02441	0.115
Mof_C 	C 	0.1292	0.7545	0.9291	0.024
Mof_C 	C 	0.2464	0.341	0.8499	0.031
Mof_C 	C 	0.0962	0.827	0.8636	-0.219
Mof_C 	C 	0.42625	0.8525	0.34171	-0.146
Mof_C 	C 	0.5056	0.8956	0.10413	0.023
Mof_C 	C 	0.0962	0.827	0.6364	-0.219
Mof_C 	C 	0.6601	0.83005	0.5881	-0.09
Mof_C 	C 	0.8708	0.2455	0.0709	0.024
Mof_C 	C 	0.7554	0.1655	0.1613	0.491
Mof_C 	C 	0.1475	0.57375	0.34171	-0.146
Mof_C 	C 	0.21	0.941	0.6362	0.001
Mof_C 	C 	0.173	0.9038	0.8636	-0.219
Mof_C 	C 	0.9038	0.7308	0.1364	-0.219
Mof_C 	C 	0.4072	0.8144	0.19612	0.566
Mof_C 	C 	0.9038	0.173	0.1364	-0.219
Mof_C 	C 	0.1521	0.7221	0.95836	-0.175
Mof_C 	C 	0.79	0.059	0.3638	0.001
Mof_C 	C 	0.8669	0.4946	0.85974	-0.002
Mof_C 	C 	0.4946	0.8669	0.35974	-0.002
Mof_C 	C 	0.205	0.875	0.8469	-0.422
Mof_C 	C 	0.8639	0.2652	0.4219	0.079
Mof_C 	C 	0.269	0.059	0.3638	0.001
Mof_C 	C 	0.7308	0.9038	0.6364	-0.219
Mof_C 	C 	0.2692	0.173	0.3636	-0.219
Mof_C 	C 	0.21	0.269	0.8638	0.001
Mof_C 	C 	0.5899	0.8345	0.6613	0.491
Mof_C 	C 	0.0611	0.8524	0.614	0.355
Mof_C 	C 	0.4458	0.2229	0.47559	0.115
Mof_C 	C 	0.8669	0.3723	0.64026	-0.002
Mof_C 	C 	0.82445	0.17555	0.1352	0.468
Mof_C 	C 	0.3747	0.2455	0.4291	0.024
Mof_C 	C 	0.827	0.0962	0.3636	-0.219
Mof_C 	C 	0.1044	0.4944	0.10413	0.023
Mof_C 	C 	0.2087	0.1476	0.114	0.355
Mof_C 	C 	0.8956	0.5056	0.89587	0.023
Mof_C 	C 	0.5928	0.4072	0.80388	0.566
Mof_C 	C 	0.2847	0.14235	0.3775	0.352
Mof_C 	C 	0.341	0.0946	0.1501	0.031
Mof_C 	C 	0.8639	0.2652	0.0781	0.079
Mof_C 	C 	0.67	0.875	0.8469	-0.422
Mof_C 	C 	0.1476	0.2087	0.614	0.355
Mof_C 	C 	0.173	0.2692	0.6364	-0.219
Mof_C 	C 	0.17555	0.3511	0.6352	0.468
Mof_C 	C 	0.341	0.0946	0.3499	0.031
Mof_C 	C 	0.5453	0.9031	0.52465	0.43
Mof_C 	C 	0.4101	0.1655	0.1613	0.491
Mof_C 	C 	0.2652	0.8639	0.5781	0.079
Mof_C 	C 	0.8525	0.42625	0.84171	-0.146
Mof_C 	C 	0.827	0.0962	0.1364	-0.219
Mof_C 	C 	0.3747	0.2455	0.0709	0.024
Mof_C 	C 	0.2087	0.1476	0.386	0.355
Mof_C 	C 	0.4458	0.2229	0.02441	0.115
Mof_C 	C 	0.731	0.941	0.8638	0.001
Mof_C 	C 	0.0946	0.341	0.6501	0.031
Mof_C 	C 	0.1044	0.4944	0.39587	0.023
Mof_C 	C 	0.2652	0.4013	0.9219	0.079
Mof_C 	C 	0.269	0.059	0.1362	0.001
Mof_C 	C 	0.4944	0.39	0.89587	0.023
Mof_C 	C 	0.5054	0.3723	0.64026	-0.002
Mof_C 	C 	0.67	0.795	0.8469	-0.422
Mof_C 	C 	0.4946	0.8669	0.14026	-0.002
Mof_C 	C 	0.79	0.059	0.1362	0.001
Mof_C 	C 	0.9038	0.173	0.3636	-0.219
Mof_C 	C 	0.9038	0.7308	0.3636	-0.219
Mof_C 	C 	0.8144	0.4072	0.80388	0.566
Mof_C 	C 	0.7913	0.8524	0.614	0.355
Mof_C 	C 	0.5056	0.8956	0.39587	0.023
Mof_C 	C 	0.1856	0.5928	0.19612	0.566
Mof_C 	C 	0.2446	0.4101	0.8387	0.491
Mof_C 	C 	0.3723	0.8669	0.14026	-0.002
Mof_C 	C 	0.659	0.9054	0.8499	0.031
Mof_C 	C 	0.731	0.941	0.6362	0.001
Mof_C 	C 	0.5899	0.8345	0.8387	0.491
Mof_C 	C 	0.17555	0.82445	0.6352	0.468
Mof_C 	C 	0.42625	0.57375	0.15829	-0.146
Mof_C 	C 	0.9389	0.7913	0.114	0.355
Mof_C 	C 	0.7308	0.827	0.8636	-0.219
Mof_C 	C 	0.17555	0.3511	0.8648	0.468
Mof_C 	C 	0.7771	0.2229	0.47559	0.115
Mof_C 	C 	0.85765	0.7153	0.3775	0.352
Mof_C 	C 	0.6134	0.8067	0.5955	-0.163
Mof_C 	C 	0.43	0.2779	0.04164	-0.175
Mof_C 	C 	0.7348	0.1361	0.4219	0.079
Mof_C 	C 	0.57375	0.42625	0.84171	-0.146
Mof_C 	C 	0.3511	0.17555	0.1352	0.468
Mof_C 	C 	0.8708	0.6253	0.0709	0.024
Mof_C 	C 	0.4013	0.2652	0.4219	0.079
Mof_C 	C 	0.61	0.1044	0.89587	0.023
Mof_C 	C 	0.79	0.731	0.3638	0.001
Mof_C 	C 	0.827	0.7308	0.3636	-0.219
Mof_C 	C 	0.9054	0.659	0.3499	0.031
Mof_C 	C 	0.8479	0.57	0.04164	-0.175
Mof_C 	C 	0.2692	0.173	0.1364	-0.219
Mof_C 	C 	0.205	0.875	0.6531	-0.422
Mof_C 	C 	0.8524	0.7913	0.114	0.355
Mof_C 	C 	0.8708	0.6253	0.4291	0.024
Mof_C 	C 	0.875	0.205	0.3469	-0.422
Mof_C 	C 	0.8708	0.2455	0.4291	0.024
Mof_C 	C 	0.4946	0.6277	0.14026	-0.002
Mof_C 	C 	0.57	0.7221	0.95836	-0.175
Mof_C 	C 	0.82445	0.6489	0.1352	0.468
Mof_C 	C 	0.1933	0.8067	0.5955	-0.163
Mof_C 	C 	0.0946	0.7536	0.8499	0.031
Mof_C 	C 	0.659	0.7536	0.8499	0.031
Mof_C 	C 	0.5453	0.6422	0.52465	0.43
Mof_C 	C 	0.1476	0.2087	0.886	0.355
Mof_C 	C 	0.8067	0.1933	0.0955	-0.163
Mof_C 	C 	0.269	0.21	0.1362	0.001
Mof_C 	C 	0.1044	0.61	0.10413	0.023
Mof_C 	C 	0.1521	0.43	0.95836	-0.175
Mof_C 	C 	0.1933	0.3866	0.9045	-0.163
Mof_C 	C 	0.1475	0.57375	0.15829	-0.146
Mof_C 	C 	0.1476	0.9389	0.886	0.355
Mof_C 	C 	0.42625	0.57375	0.34171	-0.146
Mof_C 	C 	0.2455	0.8708	0.9291	0.024
Mof_C 	C 	0.7913	0.9389	0.886	0.355
Mof_C 	C 	0.7348	0.1361	0.0781	0.079
Mof_C 	C 	0.1655	0.7554	0.6613	0.491
Mof_C 	C 	0.659	0.9054	0.6501	0.031
Mof_C 	C 	0.2446	0.8345	0.8387	0.491
Mof_C 	C 	0.7913	0.8524	0.886	0.355
Mof_C 	C 	0.7536	0.0946	0.1501	0.031
Mof_C 	C 	0.1361	0.7348	0.5781	0.079
Mof_C 	C 	0.83005	0.6601	0.0881	-0.09
Mof_C 	C 	0.9031	0.3578	0.02465	0.43
Mof_C 	C 	0.16995	0.3399	0.5881	-0.09
Mof_C 	C 	0.14235	0.85765	0.8775	0.353
Mof_C 	C 	0.2455	0.8708	0.5709	0.024
Mof_C 	C 	0.4547	0.0969	0.47535	0.43
Mof_C 	C 	0.1292	0.7545	0.5709	0.024
Mof_C 	C 	0.16995	0.3399	0.9119	-0.09
Mof_C 	C 	0.6422	0.0969	0.47535	0.43
Mof_C 	C 	0.0611	0.8524	0.886	0.355
Mof_C 	C 	0.9031	0.5453	0.47535	0.43
Mof_C 	C 	0.5928	0.4072	0.69612	0.566
Mof_C 	C 	0.2692	0.0962	0.1364	-0.219
Mof_C 	C 	0.4547	0.0969	0.02465	0.43
Mof_C 	C 	0.125	0.795	0.6531	-0.422
Mof_C 	C 	0.2087	0.0611	0.114	0.355
Mof_C 	C 	0.4101	0.2446	0.1613	0.491
Mof_C 	C 	0.57	0.8479	0.95836	-0.175
Mof_C 	C 	0.42625	0.8525	0.15829	-0.146
Mof_C 	C 	0.5542	0.7771	0.97559	0.115
Mof_C 	C 	0.57375	0.1475	0.65829	-0.146
Mof_C 	C 	0.2455	0.3747	0.9291	0.024
Mof_C 	C 	0.8345	0.5899	0.3387	0.491
Mof_C 	C 	0.7913	0.9389	0.614	0.355
Mof_C 	C 	0.61	0.5056	0.89587	0.023
Mof_C 	C 	0.61	0.5056	0.60413	0.023
Mof_C 	C 	0.7545	0.6253	0.0709	0.024
Mof_C 	C 	0.1655	0.4101	0.6613	0.491
Mof_C 	C 	0.2446	0.8345	0.6613	0.491
Mof_C 	C 	0.7554	0.1655	0.3387	0.491
Mof_C 	C 	0.8345	0.2446	0.3387	0.491
Mof_C 	C 	0.7348	0.5987	0.4219	0.079
Mof_C 	C 	0.7554	0.5899	0.1613	0.491
Mof_C 	C 	0.8639	0.5987	0.0781	0.079
Mof_C 	C 	0.1655	0.7554	0.8387	0.491
Mof_C 	C 	0.8144	0.4072	0.69612	0.566
Mof_C 	C 	0.125	0.33	0.8469	-0.422
Mof_C 	C 	0.9054	0.2464	0.1501	0.031
Mof_C 	C 	0.61	0.1044	0.60413	0.023
Mof_C 	C 	0.33	0.125	0.1531	-0.422
Mof_C 	C 	0.1856	0.5928	0.30388	0.566
Mof_C 	C 	0.9389	0.1476	0.386	0.355
Mof_C 	C 	0.5056	0.61	0.10413	0.023
Mof_C 	C 	0.1361	0.7348	0.9219	0.079
Mof_C 	C 	0.059	0.269	0.6362	0.001
Mof_C 	C 	0.3866	0.1933	0.0955	-0.163
Mof_C 	C 	0.7771	0.5542	0.47559	0.115
Mof_C 	C 	0.5899	0.7554	0.8387	0.491
Mof_C 	C 	0.82445	0.17555	0.3648	0.468
Mof_C 	C 	0.8669	0.4946	0.64026	-0.002
Mof_C 	C 	0.43	0.1521	0.04164	-0.175
Mof_C 	C 	0.205	0.33	0.8469	-0.422
Mof_C 	C 	0.3399	0.16995	0.4119	-0.09
Mof_C 	C 	0.5928	0.1856	0.80388	0.566
Mof_C 	C 	0.2652	0.8639	0.9219	0.079
Mof_C 	C 	0.33	0.205	0.1531	-0.422
Mof_C 	C 	0.16995	0.83005	0.5881	-0.09
Mof_C 	C 	0.0969	0.6422	0.97535	0.43
Mof_C 	C 	0.8067	0.6134	0.0955	-0.163
Mof_C 	C 	0.7545	0.1292	0.0709	0.024
Mof_C 	C 	0.0962	0.2692	0.8636	-0.219
Mof_C 	C 	0.6601	0.83005	0.9119	-0.09
Mof_C 	C 	0.21	0.269	0.6362	0.001
Mof_C 	C 	0.2464	0.9054	0.8499	0.031
Mof_C 	C 	0.2229	0.4458	0.52441	0.115
Mof_C 	C 	0.8524	0.0611	0.114	0.355
Mof_C 	C 	0.4547	0.3578	0.02465	0.43
Mof_C 	C 	0.795	0.67	0.3469	-0.422
Mof_C 	C 	0.2779	0.43	0.54164	-0.175
Mof_C 	C 	0.8956	0.5056	0.60413	0.023
Mof_C 	C 	0.3747	0.1292	0.4291	0.024
Mof_C 	C 	0.8067	0.6134	0.4045	-0.163
Mof_C 	C 	0.39	0.8956	0.10413	0.023
Mof_C 	C 	0.83005	0.16995	0.4119	-0.09
Mof_C 	C 	0.4072	0.5928	0.30388	0.566
Mof_C 	C 	0.875	0.67	0.3469	-0.422
Mof_C 	C 	0.7221	0.57	0.45836	-0.175
Mof_C 	C 	0.2779	0.8479	0.54164	-0.175
Mof_C 	C 	0.6253	0.7545	0.5709	0.024
Mof_C 	C 	0.7221	0.1521	0.04164	-0.175
Mof_C 	C 	0.1521	0.7221	0.54164	-0.175
Mof_C 	C 	0.14235	0.85765	0.6225	0.353
Mof_C 	C 	0.1331	0.6277	0.14026	-0.002
Mof_C 	C 	0.1331	0.6277	0.35974	-0.002
Mof_C 	C 	0.1331	0.5054	0.35974	-0.002
Mof_C 	C 	0.1361	0.4013	0.5781	0.079
Mof_C 	C 	0.83005	0.6601	0.4119	-0.09
Mof_C 	C 	0.6134	0.8067	0.9045	-0.163
Mof_C 	C 	0.6422	0.5453	0.47535	0.43
Mof_C 	C 	0.341	0.2464	0.3499	0.031
Mof_C 	C 	0.941	0.21	0.3638	0.001
Mof_C 	C 	0.7221	0.1521	0.45836	-0.175
Mof_C 	C 	0.7221	0.57	0.04164	-0.175
Mof_C 	C 	0.2464	0.9054	0.6501	0.031
Mof_C 	C 	0.9054	0.2464	0.3499	0.031
Mof_C 	C 	0.731	0.79	0.6362	0.001
Mof_C 	C 	0.4944	0.1044	0.60413	0.023
Mof_C 	C 	0.875	0.67	0.1531	-0.422
Mof_C 	C 	0.5987	0.8639	0.5781	0.079
Mof_C 	C 	0.85765	0.14235	0.1225	0.353
Mof_C 	C 	0.39	0.8956	0.39587	0.023
Mof_C 	C 	0.39	0.4944	0.39587	0.023
Mof_C 	C 	0.795	0.125	0.3469	-0.422
Mof_C 	C 	0.0969	0.4547	0.97535	0.43
Mof_C 	C 	0.16995	0.83005	0.9119	-0.09
Mof_C 	C 	0.6253	0.7545	0.9291	0.024
Mof_C 	C 	0.6277	0.1331	0.85974	-0.002
Mof_C 	C 	0.3747	0.1292	0.0709	0.024
Mof_C 	C 	0.57	0.7221	0.54164	-0.175
Mof_C 	C 	0.6489	0.82445	0.8648	0.468
Mof_C 	C 	0.4547	0.3578	0.47535	0.43
Mof_C 	C 	0.8524	0.0611	0.386	0.355
Mof_C 	C 	0.6277	0.4946	0.64026	-0.002
Mof_C 	C 	0.0611	0.2087	0.614	0.355
Mof_C 	C 	0.2446	0.4101	0.6613	0.491
Mof_C 	C 	0.2652	0.4013	0.5781	0.079
Mof_C 	C 	0.125	0.33	0.6531	-0.422
Mof_C 	C 	0.1331	0.5054	0.14026	-0.002
Mof_C 	C 	0.7545	0.1292	0.4291	0.024
Mof_C 	C 	0.4072	0.8144	0.30388	0.566
Mof_C 	C 	0.2455	0.3747	0.5709	0.024
Mof_C 	C 	0.33	0.205	0.3469	-0.422
Mof_C 	C 	0.8956	0.39	0.60413	0.023
Mof_C 	C 	0.659	0.7536	0.6501	0.031
Mof_C 	C 	0.3723	0.5054	0.14026	-0.002
Mof_C 	C 	0.3399	0.16995	0.0881	-0.09
Mof_C 	C 	0.3511	0.17555	0.3648	0.468
Mof_C 	C 	0.059	0.269	0.8638	0.001
Mof_C 	C 	0.43	0.1521	0.45836	-0.175
Mof_C 	C 	0.3866	0.1933	0.4045	-0.163
Mof_C 	C 	0.3578	0.4547	0.52465	0.43
Mof_C 	C 	0.14235	0.2847	0.8775	0.352
Mof_C 	C 	0.6253	0.8708	0.5709	0.024
Mof_C 	C 	0.9389	0.1476	0.114	0.355
Mof_C 	C 	0.14235	0.2847	0.6225	0.352
Mof_C 	C 	0.85765	0.14235	0.3775	0.353
Mof_C 	C 	0.1933	0.8067	0.9045	-0.163
Mof_C 	C 	0.7771	0.2229	0.02441	0.115
Mof_C 	C 	0.1933	0.3866	0.5955	-0.163
Mof_C 	C 	0.3723	0.5054	0.35974	-0.002
Mof_C 	C 	0.6277	0.4946	0.85974	-0.002
Mof_C 	C 	0.059	0.79	0.6362	0.001
Mof_C 	C 	0.7153	0.85765	0.6225	0.352
Mof_C 	C 	0.5987	0.8639	0.9219	0.079
Mof_C 	C 	0.875	0.205	0.1531	-0.422
Mof_C 	C 	0.7153	0.85765	0.8775	0.352
Mof_C 	C 	0.2229	0.4458	0.97559	0.115
Mof_C 	C 	0.67	0.875	0.6531	-0.422
Mof_C 	C 	0.7554	0.5899	0.3387	0.491
Mof_C 	C 	0.7348	0.5987	0.0781	0.079
Mof_C 	C 	0.8345	0.2446	0.1613	0.491
Mof_C 	C 	0.2779	0.8479	0.95836	-0.175
Mof_C 	C 	0.5928	0.1856	0.69612	0.566
Mof_C 	C 	0.83005	0.16995	0.0881	-0.09
Mof_C 	C 	0.795	0.125	0.1531	-0.422
Mof_C 	C 	0.7308	0.827	0.6364	-0.219
Mof_C 	C 	0.39	0.4944	0.10413	0.023
Mof_C 	C 	0.4013	0.1361	0.0781	0.079
Mof_C 	C 	0.0969	0.6422	0.52465	0.43
Mof_C 	C 	0.8479	0.2779	0.45836	-0.175
Mof_C 	C 	0.5453	0.9031	0.97535	0.43
Mof_C 	C 	0.5987	0.7348	0.5781	0.079
Mof_C 	C 	0.205	0.33	0.6531	-0.422
Mof_C 	C 	0.941	0.731	0.1362	0.001
Mof_C 	C 	0.6253	0.8708	0.9291	0.024
Mof_C 	C 	0.8525	0.42625	0.65829	-0.146
Mof_C 	C 	0.57375	0.1475	0.84171	-0.146
Mof_C 	C 	0.5056	0.61	0.39587	0.023
Mof_C 	C 	0.4101	0.2446	0.3387	0.491
Mof_C 	C 	0.5542	0.7771	0.52441	0.115
Mof_C 	C 	0.2087	0.0611	0.386	0.355
Mof_C 	C 	0.5054	0.1331	0.64026	-0.002
Mof_C 	C 	0.0962	0.2692	0.6364	-0.219
Mof_C 	C 	0.2692	0.0962	0.3636	-0.219
Mof_C 	C 	0.7536	0.659	0.1501	0.031
Mof_C 	C 	0.4944	0.1044	0.89587	0.023
Mof_C 	C 	0.2847	0.14235	0.1225	0.352
Mof_C 	C 	0.0946	0.341	0.8499	0.031
Mof_C 	C 	0.7308	0.9038	0.8636	-0.219
Mof_C 	C 	0.1292	0.3747	0.9291	0.024
Mof_C 	C 	0.9031	0.5453	0.02465	0.43
Mof_C 	C 	0.6422	0.0969	0.02465	0.43
Mof_C 	C 	0.1655	0.4101	0.8387	0.491
Mof_C 	C 	0.8669	0.3723	0.85974	-0.002
Mof_C 	C 	0.4072	0.5928	0.19612	0.566
Mof_C 	C 	0.1476	0.9389	0.614	0.355
Mof_C 	C 	0.85765	0.7153	0.1225	0.352
Mof_C 	C 	0.57	0.8479	0.54164	-0.175
Mof_C 	C 	0.9031	0.3578	0.47535	0.43
Mof_C 	C 	0.7536	0.0946	0.3499	0.031
Mof_C 	C 	0.9389	0.7913	0.386	0.355
Mof_C 	C 	0.341	0.2464	0.1501	0.031
Mof_C 	C 	0.8345	0.5899	0.1613	0.491
Mof_C 	C 	0.33	0.125	0.3469	-0.422
Mof_C 	C 	0.941	0.731	0.3638	0.001
Mof_C 	C 	0.5453	0.6422	0.97535	0.43
Mof_C 	C 	0.5054	0.3723	0.85974	-0.002
Mof_C 	C 	0.173	0.9038	0.6364	-0.219
Mof_C 	C 	0.1521	0.43	0.54164	-0.175
Mof_C 	C 	0.67	0.795	0.6531	-0.422
Mof_C 	C 	0.173	0.2692	0.8636	-0.219
Mof_C 	C 	0.731	0.79	0.8638	0.001
Mof_C 	C 	0.9054	0.659	0.1501	0.031
Mof_C 	C 	0.5899	0.7554	0.6613	0.491
Mof_C 	C 	0.795	0.67	0.1531	-0.422
Mof_C 	C 	0.57375	0.42625	0.65829	-0.146
Mof_C 	C 	0.269	0.21	0.3638	0.001
Mof_N 	N 	0.0912	0.5456	0.08648	-0.232
Mof_N 	N 	0.0912	0.5456	0.41352	-0.232
Mof_N 	N 	0.5456	0.0912	0.91352	-0.232
Mof_N 	N 	0.5456	0.4544	0.91352	-0.232
Mof_N 	N 	0.4544	0.5456	0.08648	-0.232
Mof_N 	N 	0.4544	0.9088	0.08648	-0.232
Mof_N 	N 	0.4544	0.5456	0.41352	-0.232
Mof_N 	N 	0.5456	0.4544	0.58648	-0.232
Mof_N 	N 	0.9088	0.4544	0.58648	-0.232
Mof_N 	N 	0.4544	0.9088	0.41352	-0.232
Mof_N 	N 	0.5456	0.0912	0.58648	-0.232
Mof_N 	N 	0.9088	0.4544	0.91352	-0.232
Mof_O 	O 	0.54147	0.34073	0.78986	-0.673
Mof_O 	O 	0.03726	0.444	0.95674	-0.482
Mof_O 	O 	0.59326	0.03726	0.04326	-0.482
Mof_O 	O 	0.40674	0.96274	0.95674	-0.482
Mof_O 	O 	0.36969	0.48316	0.49259	-0.47
Mof_O 	O 	0.40674	0.444	0.95674	-0.483
Mof_O 	O 	0.40674	0.96274	0.54326	-0.482
Mof_O 	O 	0.444	0.40674	0.45674	-0.483
Mof_O 	O 	0.34073	0.79926	0.21014	-0.673
Mof_O 	O 	0.48316	0.36969	0.50741	-0.47
Mof_O 	O 	0.51684	0.63031	0.00741	-0.47
Mof_O 	O 	0.45853	0.79926	0.28986	-0.673
Mof_O 	O 	0.54147	0.20074	0.78986	-0.673
Mof_O 	O 	0.556	0.96274	0.54326	-0.482
Mof_O 	O 	0.59326	0.556	0.45674	-0.483
Mof_O 	O 	0.54147	0.20074	0.71014	-0.673
Mof_O 	O 	0.556	0.96274	0.95674	-0.482
Mof_O 	O 	0.03726	0.59326	0.95674	-0.482
Mof_O 	O 	0.33333	0.66666	0.25	-1.135
Mof_O 	O 	0.63031	0.11347	0.99259	-0.47
Mof_O 	O 	0.03726	0.444	0.54326	-0.482
Mof_O 	O 	0.45853	0.79926	0.21014	-0.673
Mof_O 	O 	0.34073	0.79926	0.28986	-0.673
Mof_O 	O 	0.444	0.40674	0.04326	-0.483
Mof_O 	O 	0.88653	0.51684	0.50741	-0.47
Mof_O 	O 	0.48316	0.36969	0.99259	-0.47
Mof_O 	O 	0.45853	0.65927	0.21014	-0.673
Mof_O 	O 	0.59326	0.03726	0.45674	-0.482
Mof_O 	O 	0.65927	0.20074	0.71014	-0.673
Mof_O 	O 	0.11347	0.48316	0.49259	-0.47
Mof_O 	O 	0.444	0.03726	0.45674	-0.482
Mof_O 	O 	0.34073	0.54147	0.21014	-0.673
Mof_O 	O 	0.66667	0.33334	0.75	-1.135
Mof_O 	O 	0.20074	0.54147	0.28986	-0.674
Mof_O 	O 	0.65927	0.20074	0.78986	-0.673
Mof_O 	O 	0.36969	0.88653	0.49259	-0.47
Mof_O 	O 	0.79926	0.34073	0.78986	-0.673
Mof_O 	O 	0.88653	0.51684	0.99259	-0.47
Mof_O 	O 	0.40674	0.444	0.54326	-0.483
Mof_O 	O 	0.59326	0.556	0.04326	-0.483
Mof_O 	O 	0.96274	0.40674	0.04326	-0.482
Mof_O 	O 	0.79926	0.45853	0.78986	-0.674
Mof_O 	O 	0.51684	0.88653	0.00741	-0.47
Mof_O 	O 	0.96274	0.556	0.04326	-0.482
Mof_O 	O 	0.79926	0.45853	0.71014	-0.674
Mof_O 	O 	0.51684	0.63031	0.49259	-0.47
Mof_O 	O 	0.48316	0.11347	0.99259	-0.47
Mof_O 	O 	0.556	0.59326	0.95674	-0.483
Mof_O 	O 	0.11347	0.48316	0.00741	-0.47
Mof_O 	O 	0.63031	0.11347	0.50741	-0.47
Mof_O 	O 	0.48316	0.11347	0.50741	-0.47
Mof_O 	O 	0.45853	0.65927	0.28986	-0.673
Mof_O 	O 	0.79926	0.34073	0.71014	-0.673
Mof_O 	O 	0.65927	0.45853	0.71014	-0.673
Mof_O 	O 	0.03726	0.59326	0.54326	-0.482
Mof_O 	O 	0.88653	0.36969	0.99259	-0.47
Mof_O 	O 	0.36969	0.48316	0.00741	-0.47
Mof_O 	O 	0.11347	0.63031	0.49259	-0.47
Mof_O 	O 	0.96274	0.556	0.45674	-0.482
Mof_O 	O 	0.20074	0.65927	0.21014	-0.673
Mof_O 	O 	0.556	0.59326	0.54326	-0.483
Mof_O 	O 	0.34073	0.54147	0.28986	-0.673
Mof_O 	O 	0.96274	0.40674	0.45674	-0.482
Mof_O 	O 	0.88653	0.36969	0.50741	-0.47
Mof_O 	O 	0.65927	0.45853	0.78986	-0.673
Mof_O 	O 	0.20074	0.65927	0.28986	-0.673
Mof_O 	O 	0.11347	0.63031	0.00741	-0.47
Mof_O 	O 	0.54147	0.34073	0.71014	-0.673
Mof_O 	O 	0.63031	0.51684	0.50741	-0.47
Mof_O 	O 	0.36969	0.88653	0.00741	-0.47
Mof_O 	O 	0.51684	0.88653	0.49259	-0.47
Mof_O 	O 	0.20074	0.54147	0.21014	-0.674
Mof_O 	O 	0.63031	0.51684	0.99259	-0.47
Mof_O 	O 	0.444	0.03726	0.04326	-0.482
_end
