data_functionalizedCrystal
_audit_creation_method	'EQeq! by Chris Wilmer'
_symmetry_space_group_name_H-M	'P1'
_symmetry_Int_Tables_number	1
_symmetry_cell_setting	triclinic
loop_
_symmetry_equiv_pos_as_xyz
  x,y,z
_cell_length_a	14.331
_cell_length_b	23.7137
_cell_length_c	25.4868
_cell_angle_alpha	86.039
_cell_angle_beta	74.929
_cell_angle_gamma	74.441
loop_
_atom_site_label
_atom_site_type_symbol
_atom_site_fract_x
_atom_site_fract_y
_atom_site_fract_z
_atom_site_charge
Mof_C 	C 	0.2678	0.8569	0.62176	0.521
Mof_C 	C 	0.2811	0.9023	0.5773	-0.172
Mof_C 	C 	0.2214	0.9149	0.5401	0.062
Mof_H 	H 	0.1713	0.8961	0.5423	0.006
Mof_C 	C 	0.2385	0.9563	0.4997	-0.107
Mof_H 	H 	0.198	0.9662	0.4756	0.059
Mof_C 	C 	0.3139	0.9826	0.4953	0.012
Mof_C 	C 	0.3746	0.9696	0.53167	-0.108
Mof_H 	H 	0.4259	0.9878	0.5283	0.092
Mof_C 	C 	0.3576	0.9295	0.5727	0.071
Mof_H 	H 	0.3974	0.9208	0.5973	0.022
Mof_C 	C 	0.3346	0.0283	0.45205	0.205
Mof_C 	C 	0.2606	0.0994	0.39235	0.055
Mof_C 	C 	0.1687	0.12821	0.38172	-0.007
Mof_H 	H 	0.1107	0.1184	0.4012	0.039
Mof_C 	C 	0.1635	0.17276	0.34085	-0.203
Mof_C 	C 	0.25	0.1844	0.30947	0.188
Mof_H 	H 	0.2469	0.2115	0.2814	-0.082
Mof_C 	C 	0.3405	0.15638	0.31924	-0.262
Mof_C 	C 	0.3464	0.11335	0.3613	0.022
Mof_H 	H 	0.4082	0.0946	0.3678	0.052
Mof_C 	C 	0.4346	0.1693	0.28576	0.672
Mof_C 	C 	0.0603	0.202	0.33263	0.463
Mof_C 	C 	0.3756	0.8733	0.8656	0.661
Mof_C 	C 	0.3172	0.9173	0.9081	-0.261
Mof_C 	C 	0.2185	0.9445	0.9092	0.135
Mof_H 	H 	0.1914	0.9376	0.8816	0.003
Mof_C 	C 	0.1586	0.9828	0.9524	-0.145
Mof_H 	H 	0.0915	0.0002	0.954	0.11
Mof_C 	C 	0.2003	0.994	0.9917	0.043
Mof_C 	C 	0.2996	0.968	0.9909	-0.15
Mof_H 	H 	0.3271	0.976	0.0179	0.084
Mof_C 	C 	0.3574	0.9294	0.9484	0.133
Mof_H 	H 	0.4241	0.9115	0.9474	-0.003
Mof_C 	C 	0.1353	0.0367	0.0367	0.211
Mof_C 	C 	0.1364	0.1056	0.1042	0.035
Mof_C 	C 	0.039	0.112	0.13533	0.02
Mof_H 	H 	0.9992	0.0902	0.1276	0.057
Mof_C 	C 	0.0019	0.15183	0.17853	-0.227
Mof_C 	C 	0.0625	0.1839	0.191	0.194
Mof_H 	H 	0.0381	0.2097	0.2203	-0.087
Mof_C 	C 	0.1589	0.17651	0.15921	-0.269
Mof_C 	C 	0.1981	0.1377	0.11521	0.039
Mof_H 	H 	0.263	0.1334	0.0939	0.025
Mof_C 	C 	0.2219	0.21023	0.17055	0.599
Mof_C 	C 	0.8939	0.1639	0.2097	0.542
Mof_C 	C 	0.2415	0.3706	0.1373	0.625
Mof_C 	C 	0.2245	0.4149	0.093	-0.223
Mof_C 	C 	0.3087	0.423	0.0542	0.092
Mof_H 	H 	0.3735	0.4016	0.054	-0.003
Mof_C 	C 	0.2869	0.467	0.0147	-0.125
Mof_H 	H 	0.3394	0.4791	0.9911	0.069
Mof_C 	C 	0.1894	0.4925	0.0105	0.036
Mof_C 	C 	0.1117	0.4825	0.0475	-0.145
Mof_H 	H 	0.0466	0.4998	0.045	0.109
Mof_C 	C 	0.1303	0.4447	0.0912	0.122
Mof_H 	H 	0.0767	0.4402	0.1194	-0.001
Mof_C 	C 	0.1624	0.5379	0.968	0.203
Mof_C 	C 	0.2323	0.60664	0.89962	0.037
Mof_C 	C 	0.3027	0.6381	0.8895	0.017
Mof_H 	H 	0.3471	0.6327	0.9114	0.041
Mof_C 	C 	0.3084	0.6782	0.8469	-0.222
Mof_C 	C 	0.2385	0.6876	0.81663	0.194
Mof_H 	H 	0.2398	0.7152	0.7889	-0.082
Mof_C 	C 	0.1673	0.657	0.82691	-0.246
Mof_C 	C 	0.1622	0.61572	0.87154	0.015
Mof_H 	H 	0.112	0.5961	0.8805	0.058
Mof_C 	C 	0.0906	0.6674	0.79599	0.593
Mof_C 	C 	0.3876	0.7115	0.8376	0.538
Mof_C 	C 	0.9057	0.3752	0.3653	0.567
Mof_C 	C 	0.8387	0.41864	0.40739	-0.225
Mof_C 	C 	0.7359	0.4233	0.424	0.11
Mof_H 	H 	0.7088	0.3992	0.4086	0.006
Mof_C 	C 	0.6741	0.46367	0.4633	-0.137
Mof_H 	H 	0.6056	0.4672	0.4735	0.11
Mof_C 	C 	0.7146	0.4983	0.4869	0.03
Mof_C 	C 	0.8184	0.4929	0.47246	-0.133
Mof_H 	H 	0.846	0.5151	0.4899	0.067
Mof_C 	C 	0.8782	0.454	0.432	0.101
Mof_H 	H 	0.9464	0.4514	0.4209	-0.003
Mof_C 	C 	0.6441	0.5409	0.52989	0.197
Mof_C 	C 	0.6313	0.6073	0.6025	0.043
Mof_C 	C 	0.528	0.6342	0.61236	0.019
Mof_H 	H 	0.4906	0.6263	0.5903	0.062
Mof_C 	C 	0.483	0.673	0.65604	-0.225
Mof_C 	C 	0.5398	0.6837	0.68953	0.213
Mof_H 	H 	0.5094	0.7096	0.7185	-0.091
Mof_C 	C 	0.6395	0.6564	0.6801	-0.304
Mof_C 	C 	0.6863	0.61849	0.63658	0.053
Mof_H 	H 	0.7544	0.6005	0.63	0.012
Mof_C 	C 	0.6974	0.6681	0.71758	0.729
Mof_C 	C 	0.374	0.704	0.66688	0.516
Mof_N 	N 	0.236	0.56243	0.94269	-0.207
Mof_H 	H 	0.2889	0.5325	0.9288	0.109
Mof_N 	N 	0.679	0.56867	0.5606	-0.222
Mof_H 	H 	0.7432	0.5611	0.5528	0.12
Mof_N 	N 	0.2612	0.05508	0.43272	-0.234
Mof_H 	H 	0.206	0.0453	0.4455	0.125
Mof_N 	N 	0.1819	0.06146	0.0633	-0.21
Mof_H 	H 	0.225	0.0764	0.0376	0.109
Mof_Nd	Nd	0.57465	0.75065	0.83798	2.975
Mof_Nd	Nd	0.3275	0.83363	0.74672	2.779
Mof_Nd	Nd	0.15297	0.74781	0.6704	2.759
Mof_Nd	Nd	0.91932	0.66264	0.74371	2.678
Mof_O 	O 	0.3095	0.8612	0.65786	-0.651
Mof_O 	O 	0.2318	0.81747	0.61013	-0.581
Mof_O 	O 	0.4235	0.03177	0.4343	-0.229
Mof_O 	O 	0.51	0.15762	0.30111	-0.679
Mof_O 	O 	0.4329	0.19061	0.24013	-0.726
Mof_O 	O 	0.0293	0.25555	0.31273	-0.71
Mof_O 	O 	0.9922	0.17899	0.34808	-0.567
Mof_O 	O 	0.3446	0.87756	0.82359	-0.651
Mof_O 	O 	0.4513	0.83884	0.8718	-0.673
Mof_O 	O 	0.049	0.0458	0.04642	-0.243
Mof_O 	O 	0.3111	0.19813	0.146	-0.65
Mof_O 	O 	0.185	0.25281	0.20289	-0.688
Mof_O 	O 	0.863	0.1852	0.25639	-0.71
Mof_O 	O 	0.833	0.14963	0.19014	-0.612
Mof_O 	O 	0.3891	0.75023	0.8033	-0.694
Mof_O 	O 	0.4554	0.69395	0.86262	-0.625
Mof_O 	O 	0.1003	0.70041	0.75676	-0.691
Mof_O 	O 	0.0193	0.64588	0.80924	-0.621
Mof_O 	O 	0.0894	0.54278	0.95298	-0.24
Mof_O 	O 	0.3223	0.33246	0.12784	-0.686
Mof_O 	O 	0.1786	0.38814	0.17725	-0.613
Mof_O 	O 	0.6537	0.69166	0.75975	-0.764
Mof_O 	O 	0.7884	0.65847	0.70229	-0.681
Mof_O 	O 	0.3334	0.74314	0.70013	-0.703
Mof_O 	O 	0.3237	0.68795	0.6388	-0.562
Mof_O 	O 	0.5541	0.54581	0.54088	-0.225
Mof_O 	O 	0.9957	0.37156	0.34842	-0.59
Mof_O 	O 	0.8673	0.35022	0.33996	-0.641
Mof_O 	O 	0.533	0.7626	0.9413	-0.277
Mof_H 	H 	0.5429	0.799	0.9497	-0.232
Mof_H 	H 	0.575	0.7308	0.9563	0.022
Mof_O 	O 	0.281	0.945	0.744	-0.292
Mof_H 	H 	0.3222	0.9576	0.7122	0.031
Mof_H 	H 	0.2121	0.9591	0.7441	-0.201
Mof_O 	O 	0.155	0.735	0.576	-0.26
Mof_H 	H 	0.1377	0.7729	0.5594	-0.096
Mof_H 	H 	0.1073	0.714	0.5745	0.185
Mof_O 	O 	0.994	0.562	0.7533	0.062
Mof_H 	H 	0.9561	0.5474	0.7858	-0.11
Mof_H 	H 	0.9935	0.541	0.7224	-0.485
Mof_O 	O 	0.531	0.7533	0.9397	-0.332
Mof_H 	H 	0.5646	0.7783	0.9513	0.452
Mof_H 	H 	0.5521	0.7145	0.9534	0.127
Mof_O 	O 	0.277	0.943	0.739	-0.149
Mof_H 	H 	0.3258	0.9551	0.7099	0.085
Mof_H 	H 	0.2129	0.955	0.731	0.314
Mof_O 	O 	0.154	0.744	0.576	-0.217
Mof_H 	H 	0.139	0.7832	0.5622	0.24
Mof_H 	H 	0.1047	0.7251	0.5728	-0.055
Mof_O 	O 	0.007	0.5576	0.7398	-0.54
Mof_H 	H 	0.0083	0.5435	0.7759	0.221
Mof_H 	H 	0.9717	0.5364	0.7244	0.661
Mof_C 	C 	0.7322	0.1431	0.37824	0.522
Mof_C 	C 	0.7189	0.0977	0.4227	-0.171
Mof_C 	C 	0.7786	0.0851	0.4599	0.063
Mof_H 	H 	0.8287	0.1039	0.4577	0.007
Mof_C 	C 	0.7615	0.0437	0.5003	-0.106
Mof_H 	H 	0.802	0.0338	0.5244	0.06
Mof_C 	C 	0.6861	0.0174	0.5047	0.012
Mof_C 	C 	0.6254	0.0304	0.46833	-0.108
Mof_H 	H 	0.5741	0.0122	0.4717	0.092
Mof_C 	C 	0.6424	0.0705	0.4273	0.071
Mof_H 	H 	0.6026	0.0792	0.4027	0.022
Mof_C 	C 	0.6654	0.9717	0.54795	0.205
Mof_C 	C 	0.7394	0.9006	0.60765	0.055
Mof_C 	C 	0.8313	0.87179	0.61828	-0.007
Mof_H 	H 	0.8893	0.8816	0.5988	0.039
Mof_C 	C 	0.8365	0.82724	0.65915	-0.203
Mof_C 	C 	0.75	0.8156	0.69053	0.188
Mof_H 	H 	0.7531	0.7885	0.7186	-0.082
Mof_C 	C 	0.6595	0.84362	0.68076	-0.262
Mof_C 	C 	0.6536	0.88665	0.6387	0.022
Mof_H 	H 	0.5918	0.9054	0.6322	0.052
Mof_C 	C 	0.5654	0.8307	0.71424	0.672
Mof_C 	C 	0.9397	0.798	0.66737	0.463
Mof_C 	C 	0.6244	0.1267	0.1344	0.661
Mof_C 	C 	0.6828	0.0827	0.0919	-0.261
Mof_C 	C 	0.7815	0.0555	0.0908	0.135
Mof_H 	H 	0.8086	0.0624	0.1184	0.003
Mof_C 	C 	0.8414	0.0172	0.0476	-0.145
Mof_H 	H 	0.9085	0.9998	0.046	0.11
Mof_C 	C 	0.7997	0.006	0.0083	0.043
Mof_C 	C 	0.7004	0.032	0.0091	-0.15
Mof_H 	H 	0.6729	0.024	0.9821	0.084
Mof_C 	C 	0.6426	0.0706	0.0516	0.133
Mof_H 	H 	0.5759	0.0885	0.0526	-0.003
Mof_C 	C 	0.8647	0.9633	0.9633	0.211
Mof_C 	C 	0.8636	0.8944	0.8958	0.035
Mof_C 	C 	0.961	0.888	0.86467	0.02
Mof_H 	H 	0.0008	0.9098	0.8724	0.057
Mof_C 	C 	0.9981	0.84817	0.82147	-0.227
Mof_C 	C 	0.9375	0.8161	0.809	0.194
Mof_H 	H 	0.9619	0.7903	0.7797	-0.087
Mof_C 	C 	0.8411	0.82349	0.84079	-0.269
Mof_C 	C 	0.8019	0.8623	0.88479	0.039
Mof_H 	H 	0.737	0.8666	0.9061	0.025
Mof_C 	C 	0.7781	0.78977	0.82945	0.599
Mof_C 	C 	0.1061	0.8361	0.7903	0.542
Mof_C 	C 	0.7585	0.6294	0.8627	0.625
Mof_C 	C 	0.7755	0.5851	0.907	-0.223
Mof_C 	C 	0.6913	0.577	0.9458	0.092
Mof_H 	H 	0.6265	0.5984	0.946	-0.003
Mof_C 	C 	0.7131	0.533	0.9853	-0.125
Mof_H 	H 	0.6606	0.5209	0.0089	0.069
Mof_C 	C 	0.8106	0.5075	0.9895	0.036
Mof_C 	C 	0.8883	0.5175	0.9525	-0.145
Mof_H 	H 	0.9534	0.5002	0.955	0.109
Mof_C 	C 	0.8697	0.5553	0.9088	0.122
Mof_H 	H 	0.9233	0.5598	0.8806	-0.001
Mof_C 	C 	0.8376	0.4621	0.032	0.203
Mof_C 	C 	0.7677	0.39336	0.10038	0.037
Mof_C 	C 	0.6973	0.3619	0.1105	0.017
Mof_H 	H 	0.6529	0.3673	0.0886	0.041
Mof_C 	C 	0.6916	0.3218	0.1531	-0.222
Mof_C 	C 	0.7615	0.3124	0.18337	0.194
Mof_H 	H 	0.7602	0.2848	0.2111	-0.082
Mof_C 	C 	0.8327	0.343	0.17309	-0.246
Mof_C 	C 	0.8378	0.38428	0.12846	0.015
Mof_H 	H 	0.888	0.4039	0.1195	0.058
Mof_C 	C 	0.9094	0.3326	0.20401	0.593
Mof_C 	C 	0.6124	0.2885	0.1624	0.538
Mof_C 	C 	0.0943	0.6248	0.6347	0.567
Mof_C 	C 	0.1613	0.58136	0.59261	-0.225
Mof_C 	C 	0.2641	0.5767	0.576	0.11
Mof_H 	H 	0.2912	0.6008	0.5914	0.006
Mof_C 	C 	0.3259	0.53633	0.5367	-0.137
Mof_H 	H 	0.3944	0.5328	0.5265	0.11
Mof_C 	C 	0.2854	0.5017	0.5131	0.03
Mof_C 	C 	0.1816	0.5071	0.52754	-0.133
Mof_H 	H 	0.154	0.4849	0.5101	0.067
Mof_C 	C 	0.1218	0.546	0.568	0.101
Mof_H 	H 	0.0536	0.5486	0.5791	-0.003
Mof_C 	C 	0.3559	0.4591	0.47011	0.197
Mof_C 	C 	0.3687	0.3927	0.3975	0.043
Mof_C 	C 	0.472	0.3658	0.38764	0.019
Mof_H 	H 	0.5094	0.3737	0.4097	0.062
Mof_C 	C 	0.517	0.327	0.34396	-0.225
Mof_C 	C 	0.4602	0.3163	0.31047	0.213
Mof_H 	H 	0.4906	0.2904	0.2815	-0.091
Mof_C 	C 	0.3605	0.3436	0.3199	-0.304
Mof_C 	C 	0.3137	0.38151	0.36342	0.053
Mof_H 	H 	0.2456	0.3995	0.37	0.012
Mof_C 	C 	0.3026	0.3319	0.28242	0.729
Mof_C 	C 	0.626	0.296	0.33312	0.516
Mof_N 	N 	0.764	0.43757	0.05731	-0.207
Mof_H 	H 	0.7111	0.4675	0.0712	0.109
Mof_N 	N 	0.321	0.43133	0.4394	-0.222
Mof_H 	H 	0.2568	0.4389	0.4472	0.12
Mof_N 	N 	0.7388	0.94492	0.56728	-0.234
Mof_H 	H 	0.794	0.9547	0.5545	0.125
Mof_N 	N 	0.8181	0.93854	0.9367	-0.21
Mof_H 	H 	0.775	0.9236	0.9624	0.109
Mof_Nd	Nd	0.42535	0.24935	0.16202	2.975
Mof_Nd	Nd	0.6725	0.16637	0.25328	2.779
Mof_Nd	Nd	0.84703	0.25219	0.3296	2.759
Mof_Nd	Nd	0.08068	0.33736	0.25629	2.678
Mof_O 	O 	0.6905	0.1388	0.34214	-0.651
Mof_O 	O 	0.7682	0.18253	0.38987	-0.581
Mof_O 	O 	0.5765	0.96823	0.5657	-0.229
Mof_O 	O 	0.49	0.84238	0.69889	-0.679
Mof_O 	O 	0.5671	0.80939	0.75987	-0.726
Mof_O 	O 	0.9707	0.74445	0.68727	-0.71
Mof_O 	O 	0.0078	0.82101	0.65192	-0.567
Mof_O 	O 	0.6554	0.12244	0.17641	-0.651
Mof_O 	O 	0.5487	0.16116	0.1282	-0.673
Mof_O 	O 	0.951	0.9542	0.95358	-0.243
Mof_O 	O 	0.6889	0.80187	0.854	-0.65
Mof_O 	O 	0.815	0.74719	0.79711	-0.688
Mof_O 	O 	0.137	0.8148	0.74361	-0.71
Mof_O 	O 	0.167	0.85037	0.80986	-0.612
Mof_O 	O 	0.6109	0.24977	0.1967	-0.694
Mof_O 	O 	0.5446	0.30605	0.13738	-0.625
Mof_O 	O 	0.8997	0.29959	0.24324	-0.691
Mof_O 	O 	0.9807	0.35412	0.19076	-0.621
Mof_O 	O 	0.9106	0.45722	0.04702	-0.24
Mof_O 	O 	0.6777	0.66754	0.87216	-0.686
Mof_O 	O 	0.8214	0.61186	0.82275	-0.613
Mof_O 	O 	0.3463	0.30834	0.24025	-0.764
Mof_O 	O 	0.2116	0.34153	0.29771	-0.681
Mof_O 	O 	0.6666	0.25686	0.29987	-0.703
Mof_O 	O 	0.6763	0.31205	0.3612	-0.562
Mof_O 	O 	0.4459	0.45419	0.45912	-0.225
Mof_O 	O 	0.0043	0.62844	0.65158	-0.59
Mof_O 	O 	0.1327	0.64978	0.66004	-0.641
Mof_O 	O 	0.467	0.2374	0.0587	-0.277
Mof_H 	H 	0.4571	0.201	0.0503	-0.232
Mof_H 	H 	0.425	0.2692	0.0437	0.022
Mof_O 	O 	0.719	0.055	0.256	-0.292
Mof_H 	H 	0.6778	0.0424	0.2878	0.031
Mof_H 	H 	0.7879	0.0409	0.2559	-0.201
Mof_O 	O 	0.845	0.265	0.424	-0.26
Mof_H 	H 	0.8623	0.2271	0.4406	-0.096
Mof_H 	H 	0.8927	0.286	0.4255	0.185
Mof_O 	O 	0.006	0.438	0.2467	0.062
Mof_H 	H 	0.0439	0.4526	0.2142	-0.11
Mof_H 	H 	0.0065	0.459	0.2776	-0.485
Mof_O 	O 	0.469	0.2467	0.0603	-0.332
Mof_H 	H 	0.4354	0.2217	0.0487	0.452
Mof_H 	H 	0.4479	0.2855	0.0466	0.127
Mof_O 	O 	0.723	0.057	0.261	-0.149
Mof_H 	H 	0.6742	0.0449	0.2901	0.085
Mof_H 	H 	0.7871	0.045	0.269	0.314
Mof_O 	O 	0.846	0.256	0.424	-0.217
Mof_H 	H 	0.861	0.2168	0.4378	0.24
Mof_H 	H 	0.8953	0.2749	0.4272	-0.055
Mof_O 	O 	0.993	0.4424	0.2602	-0.54
Mof_H 	H 	0.9917	0.4565	0.2241	0.221
Mof_H 	H 	0.0283	0.4636	0.2756	0.661
_end
