data_functionalizedCrystal
_audit_creation_method	'EQeq! by Chris Wilmer'
_symmetry_space_group_name_H-M	'P1'
_symmetry_Int_Tables_number	1
_symmetry_cell_setting	triclinic
loop_
_symmetry_equiv_pos_as_xyz
  x,y,z
_cell_length_a	25.92
_cell_length_b	28.56
_cell_length_c	40.27
_cell_angle_alpha	90
_cell_angle_beta	90
_cell_angle_gamma	90
loop_
_atom_site_label
_atom_site_type_symbol
_atom_site_fract_x
_atom_site_fract_y
_atom_site_fract_z
_atom_site_charge
Mof_O 	O 	0.26206	0.4508	0.2072	-0.487
Mof_O 	O 	0.44563	0.26624	0.20993	-0.5
Mof_O 	O 	0.32044	0.44923	0.24777	-0.48
Mof_O 	O 	0.44461	0.31671	0.25153	-0.486
Mof_C 	C 	0.2656	0.269	0.02997	-0.088
Mof_C 	C 	0.2834	0.2903	0.0625	0.048
Mof_C 	C 	0.3355	0.2858	0.07261	-0.088
Mof_H 	H 	0.3594	0.2717	0.0586	0.047
Mof_C 	C 	0.2497	0.312	0.08395	-0.081
Mof_H 	H 	0.2152	0.3152	0.078	0.052
Mof_C 	C 	0.3509	0.3023	0.10335	-0.05
Mof_H 	H 	0.3851	0.2985	0.1099	0.04
Mof_C 	C 	0.2663	0.3289	0.11389	-0.048
Mof_H 	H 	0.243	0.3441	0.1277	0.041
Mof_C 	C 	0.3176	0.3239	0.12416	0.017
Mof_C 	C 	0.3344	0.34053	0.15802	-0.027
Mof_C 	C 	0.3737	0.3164	0.17531	0.011
Mof_H 	H 	0.3894	0.2905	0.1655	0.035
Mof_C 	C 	0.3108	0.378	0.17342	0.006
Mof_H 	H 	0.2837	0.3933	0.1629	0.035
Mof_C 	C 	0.3892	0.3303	0.20623	-0.126
Mof_C 	C 	0.3273	0.3932	0.20491	-0.123
Mof_C 	C 	0.3665	0.3692	0.22096	0.062
Mof_H 	H 	0.3776	0.3791	0.2417	0.03
Mof_C 	C 	0.3018	0.4344	0.22106	0.406
Mof_C 	C 	0.43	0.302	0.22397	0.426
Mof_H 	H 	0.3217	0.3428	0.9775	0.068
Mof_H 	H 	0.3452	0.3292	0.0121	0.069
Mof_H 	H 	0.2943	0.3587	0.0104	0.068
Mof_H 	H 	0.3191	0.3443	0.0225	0.068
Mof_H 	H 	0.2956	0.3579	0.9879	0.062
Mof_H 	H 	0.3465	0.3285	0.9896	0.065
Mof_O 	O 	0.26206	0.9508	0.7072	-0.464
Mof_O 	O 	0.44563	0.76624	0.70993	-0.497
Mof_O 	O 	0.32044	0.94923	0.74777	-0.457
Mof_O 	O 	0.44461	0.81671	0.75153	-0.481
Mof_C 	C 	0.2656	0.769	0.52997	-0.093
Mof_C 	C 	0.2834	0.7903	0.5625	0.053
Mof_C 	C 	0.3355	0.7858	0.57261	-0.09
Mof_H 	H 	0.3594	0.7717	0.5586	0.05
Mof_C 	C 	0.2497	0.812	0.58395	-0.082
Mof_H 	H 	0.2152	0.8152	0.578	0.055
Mof_C 	C 	0.3509	0.8023	0.60335	-0.046
Mof_H 	H 	0.3851	0.7985	0.6099	0.041
Mof_C 	C 	0.2663	0.8289	0.61389	-0.044
Mof_H 	H 	0.243	0.8441	0.6277	0.042
Mof_C 	C 	0.3176	0.8239	0.62416	0.016
Mof_C 	C 	0.3344	0.84053	0.65802	-0.021
Mof_C 	C 	0.3737	0.8164	0.67531	0.007
Mof_H 	H 	0.3894	0.7905	0.6655	0.038
Mof_C 	C 	0.3108	0.878	0.67342	0.002
Mof_H 	H 	0.2837	0.8933	0.6629	0.041
Mof_C 	C 	0.3892	0.8303	0.70623	-0.12
Mof_C 	C 	0.3273	0.8932	0.70491	-0.112
Mof_C 	C 	0.3665	0.8692	0.72096	0.057
Mof_H 	H 	0.3776	0.8791	0.7417	0.036
Mof_C 	C 	0.3018	0.9344	0.72106	0.4
Mof_C 	C 	0.43	0.802	0.72397	0.424
Mof_H 	H 	0.3217	0.8428	0.4775	0.077
Mof_H 	H 	0.3452	0.8292	0.5121	0.075
Mof_H 	H 	0.2943	0.8587	0.5104	0.076
Mof_H 	H 	0.3191	0.8443	0.5225	0.077
Mof_H 	H 	0.2956	0.8579	0.4879	0.074
Mof_H 	H 	0.3465	0.8285	0.4896	0.075
Mof_O 	O 	0.76206	0.4508	0.7072	-0.483
Mof_O 	O 	0.94563	0.26624	0.70993	-0.472
Mof_O 	O 	0.82044	0.44923	0.74777	-0.473
Mof_O 	O 	0.94461	0.31671	0.75153	-0.458
Mof_C 	C 	0.7656	0.269	0.52997	-0.093
Mof_C 	C 	0.7834	0.2903	0.5625	0.054
Mof_C 	C 	0.8355	0.2858	0.57261	-0.09
Mof_H 	H 	0.8594	0.2717	0.5586	0.054
Mof_C 	C 	0.7497	0.312	0.58395	-0.084
Mof_H 	H 	0.7152	0.3152	0.578	0.056
Mof_C 	C 	0.8509	0.3023	0.60335	-0.046
Mof_H 	H 	0.8851	0.2985	0.6099	0.046
Mof_C 	C 	0.7663	0.3289	0.61389	-0.044
Mof_H 	H 	0.743	0.3441	0.6277	0.042
Mof_C 	C 	0.8176	0.3239	0.62416	0.016
Mof_C 	C 	0.8344	0.34053	0.65802	-0.019
Mof_C 	C 	0.8737	0.3164	0.67531	0.005
Mof_H 	H 	0.8894	0.2905	0.6655	0.043
Mof_C 	C 	0.8108	0.378	0.67342	0.002
Mof_H 	H 	0.7837	0.3933	0.6629	0.039
Mof_C 	C 	0.8892	0.3303	0.70623	-0.113
Mof_C 	C 	0.8273	0.3932	0.70491	-0.114
Mof_C 	C 	0.8665	0.3692	0.72096	0.056
Mof_H 	H 	0.8776	0.3791	0.7417	0.038
Mof_C 	C 	0.8018	0.4344	0.72106	0.403
Mof_C 	C 	0.93	0.302	0.72397	0.419
Mof_H 	H 	0.8217	0.3428	0.4775	0.077
Mof_H 	H 	0.8452	0.3292	0.5121	0.076
Mof_H 	H 	0.7943	0.3587	0.5104	0.076
Mof_H 	H 	0.8191	0.3443	0.5225	0.077
Mof_H 	H 	0.7956	0.3579	0.4879	0.074
Mof_H 	H 	0.8465	0.3285	0.4896	0.076
Mof_O 	O 	0.76206	0.9508	0.2072	-0.46
Mof_O 	O 	0.94563	0.76624	0.20993	-0.47
Mof_O 	O 	0.82044	0.94923	0.24777	-0.451
Mof_O 	O 	0.94461	0.81671	0.25153	-0.454
Mof_C 	C 	0.7656	0.769	0.02997	-0.091
Mof_C 	C 	0.7834	0.7903	0.0625	0.056
Mof_C 	C 	0.8355	0.7858	0.07261	-0.09
Mof_H 	H 	0.8594	0.7717	0.0586	0.058
Mof_C 	C 	0.7497	0.812	0.08395	-0.083
Mof_H 	H 	0.7152	0.8152	0.078	0.06
Mof_C 	C 	0.8509	0.8023	0.10335	-0.042
Mof_H 	H 	0.8851	0.7985	0.1099	0.049
Mof_C 	C 	0.7663	0.8289	0.11389	-0.041
Mof_H 	H 	0.743	0.8441	0.1277	0.044
Mof_C 	C 	0.8176	0.8239	0.12416	0.016
Mof_C 	C 	0.8344	0.84053	0.15802	-0.012
Mof_C 	C 	0.8737	0.8164	0.17531	0.001
Mof_H 	H 	0.8894	0.7905	0.1655	0.046
Mof_C 	C 	0.8108	0.878	0.17342	-0.002
Mof_H 	H 	0.7837	0.8933	0.1629	0.046
Mof_C 	C 	0.8892	0.8303	0.20623	-0.107
Mof_C 	C 	0.8273	0.8932	0.20491	-0.104
Mof_C 	C 	0.8665	0.8692	0.22096	0.051
Mof_H 	H 	0.8776	0.8791	0.2417	0.044
Mof_C 	C 	0.8018	0.9344	0.22106	0.398
Mof_C 	C 	0.93	0.802	0.22397	0.417
Mof_H 	H 	0.8217	0.8428	0.9775	0.076
Mof_H 	H 	0.8452	0.8292	0.0121	0.077
Mof_H 	H 	0.7943	0.8587	0.0104	0.077
Mof_H 	H 	0.8191	0.8443	0.0225	0.075
Mof_H 	H 	0.7956	0.8579	0.9879	0.07
Mof_H 	H 	0.8465	0.8285	0.9896	0.073
Mof_O 	O 	0.73794	0.5492	0.2072	-0.482
Mof_O 	O 	0.55437	0.73376	0.20993	-0.496
Mof_O 	O 	0.67956	0.55077	0.24777	-0.478
Mof_O 	O 	0.55539	0.68329	0.25153	-0.484
Mof_C 	C 	0.7344	0.731	0.02997	-0.075
Mof_C 	C 	0.7166	0.7097	0.0625	0.048
Mof_C 	C 	0.6645	0.7142	0.07261	-0.086
Mof_H 	H 	0.6406	0.7283	0.0586	0.05
Mof_C 	C 	0.7503	0.688	0.08395	-0.079
Mof_H 	H 	0.7848	0.6848	0.078	0.059
Mof_C 	C 	0.6491	0.6977	0.10335	-0.049
Mof_H 	H 	0.6149	0.7015	0.1099	0.042
Mof_C 	C 	0.7337	0.6711	0.11389	-0.047
Mof_H 	H 	0.757	0.6559	0.1277	0.045
Mof_C 	C 	0.6824	0.6761	0.12416	0.018
Mof_C 	C 	0.6656	0.65947	0.15802	-0.024
Mof_C 	C 	0.6263	0.6836	0.17531	0.009
Mof_H 	H 	0.6106	0.7095	0.1655	0.037
Mof_C 	C 	0.6892	0.622	0.17342	0.004
Mof_H 	H 	0.7163	0.6067	0.1629	0.038
Mof_C 	C 	0.6108	0.6697	0.20623	-0.124
Mof_C 	C 	0.6727	0.6068	0.20491	-0.12
Mof_C 	C 	0.6335	0.6308	0.22096	0.06
Mof_H 	H 	0.6224	0.6209	0.2417	0.031
Mof_C 	C 	0.6982	0.5656	0.22106	0.404
Mof_C 	C 	0.57	0.698	0.22397	0.424
Mof_H 	H 	0.6783	0.6572	0.9775	0.069
Mof_H 	H 	0.6548	0.6708	0.0121	0.07
Mof_H 	H 	0.7057	0.6413	0.0104	0.07
Mof_H 	H 	0.6809	0.6557	0.0225	0.068
Mof_H 	H 	0.7044	0.6421	0.9879	0.063
Mof_H 	H 	0.6535	0.6715	0.9896	0.066
Mof_O 	O 	0.73794	0.0492	0.7072	-0.496
Mof_O 	O 	0.55437	0.23376	0.70993	-0.498
Mof_O 	O 	0.67956	0.05077	0.74777	-0.492
Mof_O 	O 	0.55539	0.18329	0.75153	-0.488
Mof_C 	C 	0.7344	0.231	0.52997	-0.077
Mof_C 	C 	0.7166	0.2097	0.5625	0.046
Mof_C 	C 	0.6645	0.2142	0.57261	-0.086
Mof_H 	H 	0.6406	0.2283	0.5586	0.047
Mof_C 	C 	0.7503	0.188	0.58395	-0.079
Mof_H 	H 	0.7848	0.1848	0.578	0.055
Mof_C 	C 	0.6491	0.1977	0.60335	-0.052
Mof_H 	H 	0.6149	0.2015	0.6099	0.039
Mof_C 	C 	0.7337	0.1711	0.61389	-0.05
Mof_H 	H 	0.757	0.1559	0.6277	0.043
Mof_C 	C 	0.6824	0.1761	0.62416	0.018
Mof_C 	C 	0.6656	0.15947	0.65802	-0.03
Mof_C 	C 	0.6263	0.1836	0.67531	0.012
Mof_H 	H 	0.6106	0.2095	0.6655	0.035
Mof_C 	C 	0.6892	0.122	0.67342	0.007
Mof_H 	H 	0.7163	0.1067	0.6629	0.032
Mof_C 	C 	0.6108	0.1697	0.70623	-0.13
Mof_C 	C 	0.6727	0.1068	0.70491	-0.128
Mof_C 	C 	0.6335	0.1308	0.72096	0.064
Mof_H 	H 	0.6224	0.1209	0.7417	0.026
Mof_C 	C 	0.6982	0.0656	0.72106	0.406
Mof_C 	C 	0.57	0.198	0.72397	0.426
Mof_H 	H 	0.6783	0.1572	0.4775	0.07
Mof_H 	H 	0.6548	0.1708	0.5121	0.069
Mof_H 	H 	0.7057	0.1413	0.5104	0.069
Mof_H 	H 	0.6809	0.1557	0.5225	0.07
Mof_H 	H 	0.7044	0.1421	0.4879	0.067
Mof_H 	H 	0.6535	0.1715	0.4896	0.069
Mof_O 	O 	0.23794	0.5492	0.7072	-0.486
Mof_O 	O 	0.05437	0.73376	0.70993	-0.513
Mof_O 	O 	0.17956	0.55077	0.74777	-0.484
Mof_O 	O 	0.05539	0.68329	0.75153	-0.501
Mof_C 	C 	0.2344	0.731	0.52997	-0.077
Mof_C 	C 	0.2166	0.7097	0.5625	0.045
Mof_C 	C 	0.1645	0.7142	0.57261	-0.086
Mof_H 	H 	0.1406	0.7283	0.5586	0.043
Mof_C 	C 	0.2503	0.688	0.58395	-0.078
Mof_H 	H 	0.2848	0.6848	0.578	0.054
Mof_C 	C 	0.1491	0.6977	0.60335	-0.053
Mof_H 	H 	0.1149	0.7015	0.6099	0.034
Mof_C 	C 	0.2337	0.6711	0.61389	-0.05
Mof_H 	H 	0.257	0.6559	0.6277	0.043
Mof_C 	C 	0.1824	0.6761	0.62416	0.018
Mof_C 	C 	0.1656	0.65947	0.65802	-0.032
Mof_C 	C 	0.1263	0.6836	0.67531	0.013
Mof_H 	H 	0.1106	0.7095	0.6655	0.03
Mof_C 	C 	0.1892	0.622	0.67342	0.007
Mof_H 	H 	0.2163	0.6067	0.6629	0.034
Mof_C 	C 	0.1108	0.6697	0.70623	-0.135
Mof_C 	C 	0.1727	0.6068	0.70491	-0.128
Mof_C 	C 	0.1335	0.6308	0.72096	0.065
Mof_H 	H 	0.1224	0.6209	0.7417	0.024
Mof_C 	C 	0.1982	0.5656	0.72106	0.406
Mof_C 	C 	0.07	0.698	0.72397	0.427
Mof_H 	H 	0.1783	0.6572	0.4775	0.07
Mof_H 	H 	0.1548	0.6708	0.5121	0.067
Mof_H 	H 	0.2057	0.6413	0.5104	0.069
Mof_H 	H 	0.1809	0.6557	0.5225	0.07
Mof_H 	H 	0.2044	0.6421	0.4879	0.067
Mof_H 	H 	0.1535	0.6715	0.4896	0.068
Mof_O 	O 	0.23794	0.0492	0.2072	-0.5
Mof_O 	O 	0.05437	0.23376	0.20993	-0.515
Mof_O 	O 	0.17956	0.05077	0.24777	-0.498
Mof_O 	O 	0.05539	0.18329	0.25153	-0.505
Mof_C 	C 	0.2344	0.231	0.02997	-0.072
Mof_C 	C 	0.2166	0.2097	0.0625	0.042
Mof_C 	C 	0.1645	0.2142	0.07261	-0.084
Mof_H 	H 	0.1406	0.2283	0.0586	0.041
Mof_C 	C 	0.2503	0.188	0.08395	-0.076
Mof_H 	H 	0.2848	0.1848	0.078	0.051
Mof_C 	C 	0.1491	0.1977	0.10335	-0.056
Mof_H 	H 	0.1149	0.2015	0.1099	0.033
Mof_C 	C 	0.2337	0.1711	0.11389	-0.054
Mof_H 	H 	0.257	0.1559	0.1277	0.041
Mof_C 	C 	0.1824	0.1761	0.12416	0.019
Mof_C 	C 	0.1656	0.15947	0.15802	-0.037
Mof_C 	C 	0.1263	0.1836	0.17531	0.016
Mof_H 	H 	0.1106	0.2095	0.1655	0.028
Mof_C 	C 	0.1892	0.122	0.17342	0.01
Mof_H 	H 	0.2163	0.1067	0.1629	0.028
Mof_C 	C 	0.1108	0.1697	0.20623	-0.14
Mof_C 	C 	0.1727	0.1068	0.20491	-0.136
Mof_C 	C 	0.1335	0.1308	0.22096	0.068
Mof_H 	H 	0.1224	0.1209	0.2417	0.019
Mof_C 	C 	0.1982	0.0656	0.22106	0.407
Mof_C 	C 	0.07	0.198	0.22397	0.428
Mof_H 	H 	0.1783	0.1572	0.9775	0.062
Mof_H 	H 	0.1548	0.1708	0.0121	0.062
Mof_H 	H 	0.2057	0.1413	0.0104	0.062
Mof_H 	H 	0.1809	0.1557	0.0225	0.061
Mof_H 	H 	0.2044	0.1421	0.9879	0.056
Mof_H 	H 	0.1535	0.1715	0.9896	0.058
Mof_O 	O 	0.73794	0.4508	0.7928	-0.482
Mof_O 	O 	0.55437	0.26624	0.79007	-0.499
Mof_O 	O 	0.67956	0.44923	0.75223	-0.478
Mof_O 	O 	0.55539	0.31671	0.74847	-0.485
Mof_C 	C 	0.7344	0.269	0.97003	-0.087
Mof_C 	C 	0.7166	0.2903	0.9375	0.05
Mof_C 	C 	0.6645	0.2858	0.92739	-0.088
Mof_H 	H 	0.6406	0.2717	0.9414	0.046
Mof_C 	C 	0.7503	0.312	0.91605	-0.081
Mof_H 	H 	0.7848	0.3152	0.922	0.058
Mof_C 	C 	0.6491	0.3023	0.89665	-0.05
Mof_H 	H 	0.6149	0.2985	0.8901	0.039
Mof_C 	C 	0.7337	0.3289	0.88611	-0.046
Mof_H 	H 	0.757	0.3441	0.8723	0.045
Mof_C 	C 	0.6824	0.3239	0.87584	0.017
Mof_C 	C 	0.6656	0.34053	0.84198	-0.025
Mof_C 	C 	0.6263	0.3164	0.82469	0.01
Mof_H 	H 	0.6106	0.2905	0.8345	0.035
Mof_C 	C 	0.6892	0.378	0.82658	0.005
Mof_H 	H 	0.7163	0.3933	0.8371	0.038
Mof_C 	C 	0.6108	0.3303	0.79377	-0.126
Mof_C 	C 	0.6727	0.3932	0.79509	-0.121
Mof_C 	C 	0.6335	0.3692	0.77904	0.061
Mof_H 	H 	0.6224	0.3791	0.7583	0.031
Mof_C 	C 	0.6982	0.4344	0.77894	0.404
Mof_C 	C 	0.57	0.302	0.77603	0.425
Mof_H 	H 	0.6783	0.3428	0.0225	0.069
Mof_H 	H 	0.6548	0.3292	0.9879	0.064
Mof_H 	H 	0.7057	0.3587	0.9896	0.067
Mof_H 	H 	0.6809	0.3443	0.9775	0.069
Mof_H 	H 	0.7044	0.3579	0.0121	0.07
Mof_H 	H 	0.6535	0.3285	0.0104	0.069
Mof_O 	O 	0.73794	0.9508	0.2928	-0.46
Mof_O 	O 	0.55437	0.76624	0.29007	-0.497
Mof_O 	O 	0.67956	0.94923	0.25223	-0.456
Mof_O 	O 	0.55539	0.81671	0.24847	-0.48
Mof_C 	C 	0.7344	0.769	0.47003	-0.088
Mof_C 	C 	0.7166	0.7903	0.4375	0.054
Mof_C 	C 	0.6645	0.7858	0.42739	-0.09
Mof_H 	H 	0.6406	0.7717	0.4414	0.05
Mof_C 	C 	0.7503	0.812	0.41605	-0.082
Mof_H 	H 	0.7848	0.8152	0.422	0.063
Mof_C 	C 	0.6491	0.8023	0.39665	-0.045
Mof_H 	H 	0.6149	0.7985	0.3901	0.041
Mof_C 	C 	0.7337	0.8289	0.38611	-0.042
Mof_H 	H 	0.757	0.8441	0.3723	0.047
Mof_C 	C 	0.6824	0.8239	0.37584	0.016
Mof_C 	C 	0.6656	0.84053	0.34198	-0.019
Mof_C 	C 	0.6263	0.8164	0.32469	0.006
Mof_H 	H 	0.6106	0.7905	0.3345	0.038
Mof_C 	C 	0.6892	0.878	0.32658	0
Mof_H 	H 	0.7163	0.8933	0.3371	0.045
Mof_C 	C 	0.6108	0.8303	0.29377	-0.119
Mof_C 	C 	0.6727	0.8932	0.29509	-0.11
Mof_C 	C 	0.6335	0.8692	0.27904	0.056
Mof_H 	H 	0.6224	0.8791	0.2583	0.037
Mof_C 	C 	0.6982	0.9344	0.27894	0.399
Mof_C 	C 	0.57	0.802	0.27603	0.423
Mof_H 	H 	0.6783	0.8428	0.5225	0.078
Mof_H 	H 	0.6548	0.8292	0.4879	0.075
Mof_H 	H 	0.7057	0.8587	0.4896	0.078
Mof_H 	H 	0.6809	0.8443	0.4775	0.077
Mof_H 	H 	0.7044	0.8579	0.5121	0.076
Mof_H 	H 	0.6535	0.8285	0.5104	0.076
Mof_O 	O 	0.23794	0.4508	0.2928	-0.486
Mof_O 	O 	0.05437	0.26624	0.29007	-0.515
Mof_O 	O 	0.17956	0.44923	0.25223	-0.484
Mof_O 	O 	0.05539	0.31671	0.24847	-0.501
Mof_C 	C 	0.2344	0.269	0.47003	-0.084
Mof_C 	C 	0.2166	0.2903	0.4375	0.047
Mof_C 	C 	0.1645	0.2858	0.42739	-0.088
Mof_H 	H 	0.1406	0.2717	0.4414	0.04
Mof_C 	C 	0.2503	0.312	0.41605	-0.08
Mof_H 	H 	0.2848	0.3152	0.422	0.054
Mof_C 	C 	0.1491	0.3023	0.39665	-0.053
Mof_H 	H 	0.1149	0.2985	0.3901	0.032
Mof_C 	C 	0.2337	0.3289	0.38611	-0.049
Mof_H 	H 	0.257	0.3441	0.3723	0.043
Mof_C 	C 	0.1824	0.3239	0.37584	0.017
Mof_C 	C 	0.1656	0.34053	0.34198	-0.032
Mof_C 	C 	0.1263	0.3164	0.32469	0.014
Mof_H 	H 	0.1106	0.2905	0.3345	0.029
Mof_C 	C 	0.1892	0.378	0.32658	0.008
Mof_H 	H 	0.2163	0.3933	0.3371	0.034
Mof_C 	C 	0.1108	0.3303	0.29377	-0.136
Mof_C 	C 	0.1727	0.3932	0.29509	-0.128
Mof_C 	C 	0.1335	0.3692	0.27904	0.065
Mof_H 	H 	0.1224	0.3791	0.2583	0.024
Mof_C 	C 	0.1982	0.4344	0.27894	0.406
Mof_C 	C 	0.07	0.302	0.27603	0.427
Mof_H 	H 	0.1783	0.3428	0.5225	0.07
Mof_H 	H 	0.1548	0.3292	0.4879	0.067
Mof_H 	H 	0.2057	0.3587	0.4896	0.07
Mof_H 	H 	0.1809	0.3443	0.4775	0.07
Mof_H 	H 	0.2044	0.3579	0.5121	0.068
Mof_H 	H 	0.1535	0.3285	0.5104	0.068
Mof_O 	O 	0.23794	0.9508	0.7928	-0.463
Mof_O 	O 	0.05437	0.76624	0.79007	-0.513
Mof_O 	O 	0.17956	0.94923	0.75223	-0.462
Mof_O 	O 	0.05539	0.81671	0.74847	-0.497
Mof_C 	C 	0.2344	0.769	0.97003	-0.088
Mof_C 	C 	0.2166	0.7903	0.9375	0.05
Mof_C 	C 	0.1645	0.7858	0.92739	-0.089
Mof_H 	H 	0.1406	0.7717	0.9414	0.042
Mof_C 	C 	0.2503	0.812	0.91605	-0.08
Mof_H 	H 	0.2848	0.8152	0.922	0.057
Mof_C 	C 	0.1491	0.8023	0.89665	-0.05
Mof_H 	H 	0.1149	0.7985	0.8901	0.034
Mof_C 	C 	0.2337	0.8289	0.88611	-0.046
Mof_H 	H 	0.257	0.8441	0.8723	0.045
Mof_C 	C 	0.1824	0.8239	0.87584	0.017
Mof_C 	C 	0.1656	0.84053	0.84198	-0.026
Mof_C 	C 	0.1263	0.8164	0.82469	0.01
Mof_H 	H 	0.1106	0.7905	0.8345	0.031
Mof_C 	C 	0.1892	0.878	0.82658	0.004
Mof_H 	H 	0.2163	0.8933	0.8371	0.04
Mof_C 	C 	0.1108	0.8303	0.79377	-0.13
Mof_C 	C 	0.1727	0.8932	0.79509	-0.118
Mof_C 	C 	0.1335	0.8692	0.77904	0.061
Mof_H 	H 	0.1224	0.8791	0.7583	0.03
Mof_C 	C 	0.1982	0.9344	0.77894	0.401
Mof_C 	C 	0.07	0.802	0.77603	0.426
Mof_H 	H 	0.1783	0.8428	0.0225	0.068
Mof_H 	H 	0.1548	0.8292	0.9879	0.063
Mof_H 	H 	0.2057	0.8587	0.9896	0.067
Mof_H 	H 	0.1809	0.8443	0.9775	0.069
Mof_H 	H 	0.2044	0.8579	0.0121	0.07
Mof_H 	H 	0.1535	0.8285	0.0104	0.068
Mof_O 	O 	0.26206	0.5492	0.7928	-0.486
Mof_O 	O 	0.44563	0.73376	0.79007	-0.497
Mof_O 	O 	0.32044	0.55077	0.75223	-0.479
Mof_O 	O 	0.44461	0.68329	0.74847	-0.484
Mof_C 	C 	0.2656	0.731	0.97003	-0.085
Mof_C 	C 	0.2834	0.7097	0.9375	0.048
Mof_C 	C 	0.3355	0.7142	0.92739	-0.086
Mof_H 	H 	0.3594	0.7283	0.9414	0.048
Mof_C 	C 	0.2497	0.688	0.91605	-0.079
Mof_H 	H 	0.2152	0.6848	0.922	0.05
Mof_C 	C 	0.3509	0.6977	0.89665	-0.051
Mof_H 	H 	0.3851	0.7015	0.8901	0.041
Mof_C 	C 	0.2663	0.6711	0.88611	-0.049
Mof_H 	H 	0.243	0.6559	0.8723	0.04
Mof_C 	C 	0.3176	0.6761	0.87584	0.018
Mof_C 	C 	0.3344	0.65947	0.84198	-0.027
Mof_C 	C 	0.3737	0.6836	0.82469	0.01
Mof_H 	H 	0.3894	0.7095	0.8345	0.037
Mof_C 	C 	0.3108	0.622	0.82658	0.006
Mof_H 	H 	0.2837	0.6067	0.8371	0.034
Mof_C 	C 	0.3892	0.6697	0.79377	-0.126
Mof_C 	C 	0.3273	0.6068	0.79509	-0.123
Mof_C 	C 	0.3665	0.6308	0.77904	0.062
Mof_H 	H 	0.3776	0.6209	0.7583	0.03
Mof_C 	C 	0.3018	0.5656	0.77894	0.405
Mof_C 	C 	0.43	0.698	0.77603	0.425
Mof_H 	H 	0.3217	0.6572	0.0225	0.067
Mof_H 	H 	0.3452	0.6708	0.9879	0.063
Mof_H 	H 	0.2943	0.6413	0.9896	0.065
Mof_H 	H 	0.3191	0.6557	0.9775	0.068
Mof_H 	H 	0.2956	0.6421	0.0121	0.068
Mof_H 	H 	0.3465	0.6715	0.0104	0.068
Mof_O 	O 	0.26206	0.0492	0.2928	-0.5
Mof_O 	O 	0.44563	0.23376	0.29007	-0.499
Mof_O 	O 	0.32044	0.05077	0.25223	-0.493
Mof_O 	O 	0.44461	0.18329	0.24847	-0.488
Mof_C 	C 	0.2656	0.231	0.47003	-0.082
Mof_C 	C 	0.2834	0.2097	0.4375	0.045
Mof_C 	C 	0.3355	0.2142	0.42739	-0.086
Mof_H 	H 	0.3594	0.2283	0.4414	0.047
Mof_C 	C 	0.2497	0.188	0.41605	-0.079
Mof_H 	H 	0.2152	0.1848	0.422	0.048
Mof_C 	C 	0.3509	0.1977	0.39665	-0.053
Mof_H 	H 	0.3851	0.2015	0.3901	0.039
Mof_C 	C 	0.2663	0.1711	0.38611	-0.052
Mof_H 	H 	0.243	0.1559	0.3723	0.038
Mof_C 	C 	0.3176	0.1761	0.37584	0.018
Mof_C 	C 	0.3344	0.15947	0.34198	-0.032
Mof_C 	C 	0.3737	0.1836	0.32469	0.013
Mof_H 	H 	0.3894	0.2095	0.3345	0.034
Mof_C 	C 	0.3108	0.122	0.32658	0.009
Mof_H 	H 	0.2837	0.1067	0.3371	0.029
Mof_C 	C 	0.3892	0.1697	0.29377	-0.131
Mof_C 	C 	0.3273	0.1068	0.29509	-0.131
Mof_C 	C 	0.3665	0.1308	0.27904	0.065
Mof_H 	H 	0.3776	0.1209	0.2583	0.026
Mof_C 	C 	0.3018	0.0656	0.27894	0.407
Mof_C 	C 	0.43	0.198	0.27603	0.426
Mof_H 	H 	0.3217	0.1572	0.5225	0.069
Mof_H 	H 	0.3452	0.1708	0.4879	0.068
Mof_H 	H 	0.2943	0.1413	0.4896	0.068
Mof_H 	H 	0.3191	0.1557	0.4775	0.069
Mof_H 	H 	0.2956	0.1421	0.5121	0.066
Mof_H 	H 	0.3465	0.1715	0.5104	0.068
Mof_O 	O 	0.76206	0.5492	0.2928	-0.483
Mof_O 	O 	0.94563	0.73376	0.29007	-0.47
Mof_O 	O 	0.82044	0.55077	0.25223	-0.473
Mof_O 	O 	0.94461	0.68329	0.24847	-0.458
Mof_C 	C 	0.7656	0.731	0.47003	-0.086
Mof_C 	C 	0.7834	0.7097	0.4375	0.052
Mof_C 	C 	0.8355	0.7142	0.42739	-0.088
Mof_H 	H 	0.8594	0.7283	0.4414	0.056
Mof_C 	C 	0.7497	0.688	0.41605	-0.082
Mof_H 	H 	0.7152	0.6848	0.422	0.056
Mof_C 	C 	0.8509	0.6977	0.39665	-0.046
Mof_H 	H 	0.8851	0.7015	0.3901	0.048
Mof_C 	C 	0.7663	0.6711	0.38611	-0.045
Mof_H 	H 	0.743	0.6559	0.3723	0.042
Mof_C 	C 	0.8176	0.6761	0.37584	0.017
Mof_C 	C 	0.8344	0.65947	0.34198	-0.018
Mof_C 	C 	0.8737	0.6836	0.32469	0.004
Mof_H 	H 	0.8894	0.7095	0.3345	0.045
Mof_C 	C 	0.8108	0.622	0.32658	0.001
Mof_H 	H 	0.7837	0.6067	0.3371	0.039
Mof_C 	C 	0.8892	0.6697	0.29377	-0.112
Mof_C 	C 	0.8273	0.6068	0.29509	-0.114
Mof_C 	C 	0.8665	0.6308	0.27904	0.055
Mof_H 	H 	0.8776	0.6209	0.2583	0.038
Mof_C 	C 	0.8018	0.5656	0.27894	0.403
Mof_C 	C 	0.93	0.698	0.27603	0.418
Mof_H 	H 	0.8217	0.6572	0.5225	0.077
Mof_H 	H 	0.8452	0.6708	0.4879	0.076
Mof_H 	H 	0.7943	0.6413	0.4896	0.076
Mof_H 	H 	0.8191	0.6557	0.4775	0.076
Mof_H 	H 	0.7956	0.6421	0.5121	0.074
Mof_H 	H 	0.8465	0.6715	0.5104	0.076
Mof_O 	O 	0.76206	0.0492	0.7928	-0.497
Mof_O 	O 	0.94563	0.23376	0.79007	-0.472
Mof_O 	O 	0.82044	0.05077	0.75223	-0.487
Mof_O 	O 	0.94461	0.18329	0.74847	-0.461
Mof_C 	C 	0.7656	0.231	0.97003	-0.086
Mof_C 	C 	0.7834	0.2097	0.9375	0.049
Mof_C 	C 	0.8355	0.2142	0.92739	-0.086
Mof_H 	H 	0.8594	0.2283	0.9414	0.053
Mof_C 	C 	0.7497	0.188	0.91605	-0.081
Mof_H 	H 	0.7152	0.1848	0.922	0.052
Mof_C 	C 	0.8509	0.1977	0.89665	-0.05
Mof_H 	H 	0.8851	0.2015	0.8901	0.047
Mof_C 	C 	0.7663	0.1711	0.88611	-0.048
Mof_H 	H 	0.743	0.1559	0.8723	0.04
Mof_C 	C 	0.8176	0.1761	0.87584	0.017
Mof_C 	C 	0.8344	0.15947	0.84198	-0.024
Mof_C 	C 	0.8737	0.1836	0.82469	0.007
Mof_H 	H 	0.8894	0.2095	0.8345	0.042
Mof_C 	C 	0.8108	0.122	0.82658	0.005
Mof_H 	H 	0.7837	0.1067	0.8371	0.033
Mof_C 	C 	0.8892	0.1697	0.79377	-0.117
Mof_C 	C 	0.8273	0.1068	0.79509	-0.122
Mof_C 	C 	0.8665	0.1308	0.77904	0.059
Mof_H 	H 	0.8776	0.1209	0.7583	0.033
Mof_C 	C 	0.8018	0.0656	0.77894	0.405
Mof_C 	C 	0.93	0.198	0.77603	0.42
Mof_H 	H 	0.8217	0.1572	0.0225	0.068
Mof_H 	H 	0.8452	0.1708	0.9879	0.065
Mof_H 	H 	0.7943	0.1413	0.9896	0.065
Mof_H 	H 	0.8191	0.1557	0.9775	0.069
Mof_H 	H 	0.7956	0.1421	0.0121	0.068
Mof_H 	H 	0.8465	0.1715	0.0104	0.07
Mof_O 	O 	0.73794	0.5492	0.7928	-0.482
Mof_O 	O 	0.55437	0.73376	0.79007	-0.496
Mof_O 	O 	0.67956	0.55077	0.75223	-0.478
Mof_O 	O 	0.55539	0.68329	0.74847	-0.484
Mof_C 	C 	0.7344	0.731	0.97003	-0.08
Mof_C 	C 	0.7166	0.7097	0.9375	0.048
Mof_C 	C 	0.6645	0.7142	0.92739	-0.086
Mof_H 	H 	0.6406	0.7283	0.9414	0.048
Mof_C 	C 	0.7503	0.688	0.91605	-0.079
Mof_H 	H 	0.7848	0.6848	0.922	0.058
Mof_C 	C 	0.6491	0.6977	0.89665	-0.05
Mof_H 	H 	0.6149	0.7015	0.8901	0.041
Mof_C 	C 	0.7337	0.6711	0.88611	-0.047
Mof_H 	H 	0.757	0.6559	0.8723	0.045
Mof_C 	C 	0.6824	0.6761	0.87584	0.018
Mof_C 	C 	0.6656	0.65947	0.84198	-0.025
Mof_C 	C 	0.6263	0.6836	0.82469	0.009
Mof_H 	H 	0.6106	0.7095	0.8345	0.037
Mof_C 	C 	0.6892	0.622	0.82658	0.004
Mof_H 	H 	0.7163	0.6067	0.8371	0.038
Mof_C 	C 	0.6108	0.6697	0.79377	-0.125
Mof_C 	C 	0.6727	0.6068	0.79509	-0.12
Mof_C 	C 	0.6335	0.6308	0.77904	0.06
Mof_H 	H 	0.6224	0.6209	0.7583	0.031
Mof_C 	C 	0.6982	0.5656	0.77894	0.404
Mof_C 	C 	0.57	0.698	0.77603	0.424
Mof_H 	H 	0.6783	0.6572	0.0225	0.068
Mof_H 	H 	0.6548	0.6708	0.9879	0.064
Mof_H 	H 	0.7057	0.6413	0.9896	0.067
Mof_H 	H 	0.6809	0.6557	0.9775	0.069
Mof_H 	H 	0.7044	0.6421	0.0121	0.07
Mof_H 	H 	0.6535	0.6715	0.0104	0.069
Mof_O 	O 	0.73794	0.0492	0.2928	-0.496
Mof_O 	O 	0.55437	0.23376	0.29007	-0.498
Mof_O 	O 	0.67956	0.05077	0.25223	-0.492
Mof_O 	O 	0.55539	0.18329	0.24847	-0.488
Mof_C 	C 	0.7344	0.231	0.47003	-0.077
Mof_C 	C 	0.7166	0.2097	0.4375	0.046
Mof_C 	C 	0.6645	0.2142	0.42739	-0.086
Mof_H 	H 	0.6406	0.2283	0.4414	0.047
Mof_C 	C 	0.7503	0.188	0.41605	-0.079
Mof_H 	H 	0.7848	0.1848	0.422	0.055
Mof_C 	C 	0.6491	0.1977	0.39665	-0.052
Mof_H 	H 	0.6149	0.2015	0.3901	0.039
Mof_C 	C 	0.7337	0.1711	0.38611	-0.05
Mof_H 	H 	0.757	0.1559	0.3723	0.043
Mof_C 	C 	0.6824	0.1761	0.37584	0.018
Mof_C 	C 	0.6656	0.15947	0.34198	-0.03
Mof_C 	C 	0.6263	0.1836	0.32469	0.012
Mof_H 	H 	0.6106	0.2095	0.3345	0.035
Mof_C 	C 	0.6892	0.122	0.32658	0.007
Mof_H 	H 	0.7163	0.1067	0.3371	0.032
Mof_C 	C 	0.6108	0.1697	0.29377	-0.13
Mof_C 	C 	0.6727	0.1068	0.29509	-0.128
Mof_C 	C 	0.6335	0.1308	0.27904	0.064
Mof_H 	H 	0.6224	0.1209	0.2583	0.026
Mof_C 	C 	0.6982	0.0656	0.27894	0.406
Mof_C 	C 	0.57	0.198	0.27603	0.426
Mof_H 	H 	0.6783	0.1572	0.5225	0.07
Mof_H 	H 	0.6548	0.1708	0.4879	0.069
Mof_H 	H 	0.7057	0.1413	0.4896	0.069
Mof_H 	H 	0.6809	0.1557	0.4775	0.07
Mof_H 	H 	0.7044	0.1421	0.5121	0.067
Mof_H 	H 	0.6535	0.1715	0.5104	0.069
Mof_O 	O 	0.23794	0.5492	0.2928	-0.486
Mof_O 	O 	0.05437	0.73376	0.29007	-0.513
Mof_O 	O 	0.17956	0.55077	0.25223	-0.484
Mof_O 	O 	0.05539	0.68329	0.24847	-0.501
Mof_C 	C 	0.2344	0.731	0.47003	-0.077
Mof_C 	C 	0.2166	0.7097	0.4375	0.045
Mof_C 	C 	0.1645	0.7142	0.42739	-0.086
Mof_H 	H 	0.1406	0.7283	0.4414	0.043
Mof_C 	C 	0.2503	0.688	0.41605	-0.078
Mof_H 	H 	0.2848	0.6848	0.422	0.054
Mof_C 	C 	0.1491	0.6977	0.39665	-0.053
Mof_H 	H 	0.1149	0.7015	0.3901	0.034
Mof_C 	C 	0.2337	0.6711	0.38611	-0.05
Mof_H 	H 	0.257	0.6559	0.3723	0.043
Mof_C 	C 	0.1824	0.6761	0.37584	0.018
Mof_C 	C 	0.1656	0.65947	0.34198	-0.032
Mof_C 	C 	0.1263	0.6836	0.32469	0.013
Mof_H 	H 	0.1106	0.7095	0.3345	0.03
Mof_C 	C 	0.1892	0.622	0.32658	0.007
Mof_H 	H 	0.2163	0.6067	0.3371	0.034
Mof_C 	C 	0.1108	0.6697	0.29377	-0.135
Mof_C 	C 	0.1727	0.6068	0.29509	-0.128
Mof_C 	C 	0.1335	0.6308	0.27904	0.065
Mof_H 	H 	0.1224	0.6209	0.2583	0.024
Mof_C 	C 	0.1982	0.5656	0.27894	0.406
Mof_C 	C 	0.07	0.698	0.27603	0.426
Mof_H 	H 	0.1783	0.6572	0.5225	0.07
Mof_H 	H 	0.1548	0.6708	0.4879	0.067
Mof_H 	H 	0.2057	0.6413	0.4896	0.069
Mof_H 	H 	0.1809	0.6557	0.4775	0.07
Mof_H 	H 	0.2044	0.6421	0.5121	0.067
Mof_H 	H 	0.1535	0.6715	0.5104	0.068
Mof_O 	O 	0.23794	0.0492	0.7928	-0.5
Mof_O 	O 	0.05437	0.23376	0.79007	-0.515
Mof_O 	O 	0.17956	0.05077	0.75223	-0.498
Mof_O 	O 	0.05539	0.18329	0.74847	-0.505
Mof_C 	C 	0.2344	0.231	0.97003	-0.077
Mof_C 	C 	0.2166	0.2097	0.9375	0.042
Mof_C 	C 	0.1645	0.2142	0.92739	-0.084
Mof_H 	H 	0.1406	0.2283	0.9414	0.039
Mof_C 	C 	0.2503	0.188	0.91605	-0.077
Mof_H 	H 	0.2848	0.1848	0.922	0.05
Mof_C 	C 	0.1491	0.1977	0.89665	-0.057
Mof_H 	H 	0.1149	0.2015	0.8901	0.033
Mof_C 	C 	0.2337	0.1711	0.88611	-0.054
Mof_H 	H 	0.257	0.1559	0.8723	0.041
Mof_C 	C 	0.1824	0.1761	0.87584	0.018
Mof_C 	C 	0.1656	0.15947	0.84198	-0.037
Mof_C 	C 	0.1263	0.1836	0.82469	0.016
Mof_H 	H 	0.1106	0.2095	0.8345	0.028
Mof_C 	C 	0.1892	0.122	0.82658	0.011
Mof_H 	H 	0.2163	0.1067	0.8371	0.028
Mof_C 	C 	0.1108	0.1697	0.79377	-0.141
Mof_C 	C 	0.1727	0.1068	0.79509	-0.136
Mof_C 	C 	0.1335	0.1308	0.77904	0.068
Mof_H 	H 	0.1224	0.1209	0.7583	0.019
Mof_C 	C 	0.1982	0.0656	0.77894	0.407
Mof_C 	C 	0.07	0.198	0.77603	0.428
Mof_H 	H 	0.1783	0.1572	0.0225	0.061
Mof_H 	H 	0.1548	0.1708	0.9879	0.056
Mof_H 	H 	0.2057	0.1413	0.9896	0.059
Mof_H 	H 	0.1809	0.1557	0.9775	0.062
Mof_H 	H 	0.2044	0.1421	0.0121	0.062
Mof_H 	H 	0.1535	0.1715	0.0104	0.061
Mof_O 	O 	0.26206	0.4508	0.7928	-0.486
Mof_O 	O 	0.44563	0.26624	0.79007	-0.499
Mof_O 	O 	0.32044	0.44923	0.75223	-0.479
Mof_O 	O 	0.44461	0.31671	0.74847	-0.485
Mof_C 	C 	0.2656	0.269	0.97003	-0.092
Mof_C 	C 	0.2834	0.2903	0.9375	0.05
Mof_C 	C 	0.3355	0.2858	0.92739	-0.088
Mof_H 	H 	0.3594	0.2717	0.9414	0.046
Mof_C 	C 	0.2497	0.312	0.91605	-0.081
Mof_H 	H 	0.2152	0.3152	0.922	0.051
Mof_C 	C 	0.3509	0.3023	0.89665	-0.051
Mof_H 	H 	0.3851	0.2985	0.8901	0.039
Mof_C 	C 	0.2663	0.3289	0.88611	-0.048
Mof_H 	H 	0.243	0.3441	0.8723	0.04
Mof_C 	C 	0.3176	0.3239	0.87584	0.017
Mof_C 	C 	0.3344	0.34053	0.84198	-0.027
Mof_C 	C 	0.3737	0.3164	0.82469	0.011
Mof_H 	H 	0.3894	0.2905	0.8345	0.035
Mof_C 	C 	0.3108	0.378	0.82658	0.006
Mof_H 	H 	0.2837	0.3933	0.8371	0.034
Mof_C 	C 	0.3892	0.3303	0.79377	-0.127
Mof_C 	C 	0.3273	0.3932	0.79509	-0.123
Mof_C 	C 	0.3665	0.3692	0.77904	0.062
Mof_H 	H 	0.3776	0.3791	0.7583	0.03
Mof_C 	C 	0.3018	0.4344	0.77894	0.406
Mof_C 	C 	0.43	0.302	0.77603	0.426
Mof_H 	H 	0.3217	0.3428	0.0225	0.068
Mof_H 	H 	0.3452	0.3292	0.9879	0.063
Mof_H 	H 	0.2943	0.3587	0.9896	0.065
Mof_H 	H 	0.3191	0.3443	0.9775	0.068
Mof_H 	H 	0.2956	0.3579	0.0121	0.068
Mof_H 	H 	0.3465	0.3285	0.0104	0.068
Mof_O 	O 	0.26206	0.9508	0.2928	-0.464
Mof_O 	O 	0.44563	0.76624	0.29007	-0.497
Mof_O 	O 	0.32044	0.94923	0.25223	-0.457
Mof_O 	O 	0.44461	0.81671	0.24847	-0.481
Mof_C 	C 	0.2656	0.769	0.47003	-0.093
Mof_C 	C 	0.2834	0.7903	0.4375	0.053
Mof_C 	C 	0.3355	0.7858	0.42739	-0.09
Mof_H 	H 	0.3594	0.7717	0.4414	0.05
Mof_C 	C 	0.2497	0.812	0.41605	-0.082
Mof_H 	H 	0.2152	0.8152	0.422	0.055
Mof_C 	C 	0.3509	0.8023	0.39665	-0.046
Mof_H 	H 	0.3851	0.7985	0.3901	0.041
Mof_C 	C 	0.2663	0.8289	0.38611	-0.044
Mof_H 	H 	0.243	0.8441	0.3723	0.042
Mof_C 	C 	0.3176	0.8239	0.37584	0.016
Mof_C 	C 	0.3344	0.84053	0.34198	-0.021
Mof_C 	C 	0.3737	0.8164	0.32469	0.007
Mof_H 	H 	0.3894	0.7905	0.3345	0.038
Mof_C 	C 	0.3108	0.878	0.32658	0.002
Mof_H 	H 	0.2837	0.8933	0.3371	0.041
Mof_C 	C 	0.3892	0.8303	0.29377	-0.12
Mof_C 	C 	0.3273	0.8932	0.29509	-0.112
Mof_C 	C 	0.3665	0.8692	0.27904	0.057
Mof_H 	H 	0.3776	0.8791	0.2583	0.036
Mof_C 	C 	0.3018	0.9344	0.27894	0.4
Mof_C 	C 	0.43	0.802	0.27603	0.424
Mof_H 	H 	0.3217	0.8428	0.5225	0.077
Mof_H 	H 	0.3452	0.8292	0.4879	0.075
Mof_H 	H 	0.2943	0.8587	0.4896	0.076
Mof_H 	H 	0.3191	0.8443	0.4775	0.077
Mof_H 	H 	0.2956	0.8579	0.5121	0.074
Mof_H 	H 	0.3465	0.8285	0.5104	0.075
Mof_O 	O 	0.76206	0.4508	0.2928	-0.483
Mof_O 	O 	0.94563	0.26624	0.29007	-0.472
Mof_O 	O 	0.82044	0.44923	0.25223	-0.473
Mof_O 	O 	0.94461	0.31671	0.24847	-0.458
Mof_C 	C 	0.7656	0.269	0.47003	-0.093
Mof_C 	C 	0.7834	0.2903	0.4375	0.054
Mof_C 	C 	0.8355	0.2858	0.42739	-0.09
Mof_H 	H 	0.8594	0.2717	0.4414	0.054
Mof_C 	C 	0.7497	0.312	0.41605	-0.084
Mof_H 	H 	0.7152	0.3152	0.422	0.056
Mof_C 	C 	0.8509	0.3023	0.39665	-0.046
Mof_H 	H 	0.8851	0.2985	0.3901	0.046
Mof_C 	C 	0.7663	0.3289	0.38611	-0.044
Mof_H 	H 	0.743	0.3441	0.3723	0.042
Mof_C 	C 	0.8176	0.3239	0.37584	0.016
Mof_C 	C 	0.8344	0.34053	0.34198	-0.019
Mof_C 	C 	0.8737	0.3164	0.32469	0.005
Mof_H 	H 	0.8894	0.2905	0.3345	0.043
Mof_C 	C 	0.8108	0.378	0.32658	0.002
Mof_H 	H 	0.7837	0.3933	0.3371	0.039
Mof_C 	C 	0.8892	0.3303	0.29377	-0.113
Mof_C 	C 	0.8273	0.3932	0.29509	-0.114
Mof_C 	C 	0.8665	0.3692	0.27904	0.056
Mof_H 	H 	0.8776	0.3791	0.2583	0.038
Mof_C 	C 	0.8018	0.4344	0.27894	0.403
Mof_C 	C 	0.93	0.302	0.27603	0.419
Mof_H 	H 	0.8217	0.3428	0.5225	0.077
Mof_H 	H 	0.8452	0.3292	0.4879	0.076
Mof_H 	H 	0.7943	0.3587	0.4896	0.076
Mof_H 	H 	0.8191	0.3443	0.4775	0.077
Mof_H 	H 	0.7956	0.3579	0.5121	0.074
Mof_H 	H 	0.8465	0.3285	0.5104	0.076
Mof_O 	O 	0.76206	0.9508	0.7928	-0.46
Mof_O 	O 	0.94563	0.76624	0.79007	-0.47
Mof_O 	O 	0.82044	0.94923	0.75223	-0.451
Mof_O 	O 	0.94461	0.81671	0.74847	-0.454
Mof_C 	C 	0.7656	0.769	0.97003	-0.096
Mof_C 	C 	0.7834	0.7903	0.9375	0.057
Mof_C 	C 	0.8355	0.7858	0.92739	-0.09
Mof_H 	H 	0.8594	0.7717	0.9414	0.056
Mof_C 	C 	0.7497	0.812	0.91605	-0.084
Mof_H 	H 	0.7152	0.8152	0.922	0.059
Mof_C 	C 	0.8509	0.8023	0.89665	-0.043
Mof_H 	H 	0.8851	0.7985	0.8901	0.048
Mof_C 	C 	0.7663	0.8289	0.88611	-0.041
Mof_H 	H 	0.743	0.8441	0.8723	0.044
Mof_C 	C 	0.8176	0.8239	0.87584	0.016
Mof_C 	C 	0.8344	0.84053	0.84198	-0.013
Mof_C 	C 	0.8737	0.8164	0.82469	0.002
Mof_H 	H 	0.8894	0.7905	0.8345	0.045
Mof_C 	C 	0.8108	0.878	0.82658	-0.002
Mof_H 	H 	0.7837	0.8933	0.8371	0.045
Mof_C 	C 	0.8892	0.8303	0.79377	-0.107
Mof_C 	C 	0.8273	0.8932	0.79509	-0.104
Mof_C 	C 	0.8665	0.8692	0.77904	0.052
Mof_H 	H 	0.8776	0.8791	0.7583	0.044
Mof_C 	C 	0.8018	0.9344	0.77894	0.398
Mof_C 	C 	0.93	0.802	0.77603	0.417
Mof_H 	H 	0.8217	0.8428	0.0225	0.075
Mof_H 	H 	0.8452	0.8292	0.9879	0.071
Mof_H 	H 	0.7943	0.8587	0.9896	0.073
Mof_H 	H 	0.8191	0.8443	0.9775	0.076
Mof_H 	H 	0.7956	0.8579	0.0121	0.076
Mof_H 	H 	0.8465	0.8285	0.0104	0.076
Mof_O 	O 	0.26206	0.5492	0.2072	-0.486
Mof_O 	O 	0.44563	0.73376	0.20993	-0.496
Mof_O 	O 	0.32044	0.55077	0.24777	-0.479
Mof_O 	O 	0.44461	0.68329	0.25153	-0.484
Mof_C 	C 	0.2656	0.731	0.02997	-0.08
Mof_C 	C 	0.2834	0.7097	0.0625	0.047
Mof_C 	C 	0.3355	0.7142	0.07261	-0.086
Mof_H 	H 	0.3594	0.7283	0.0586	0.05
Mof_C 	C 	0.2497	0.688	0.08395	-0.079
Mof_H 	H 	0.2152	0.6848	0.078	0.051
Mof_C 	C 	0.3509	0.6977	0.10335	-0.05
Mof_H 	H 	0.3851	0.7015	0.1099	0.042
Mof_C 	C 	0.2663	0.6711	0.11389	-0.049
Mof_H 	H 	0.243	0.6559	0.1277	0.041
Mof_C 	C 	0.3176	0.6761	0.12416	0.018
Mof_C 	C 	0.3344	0.65947	0.15802	-0.026
Mof_C 	C 	0.3737	0.6836	0.17531	0.01
Mof_H 	H 	0.3894	0.7095	0.1655	0.037
Mof_C 	C 	0.3108	0.622	0.17342	0.006
Mof_H 	H 	0.2837	0.6067	0.1629	0.035
Mof_C 	C 	0.3892	0.6697	0.20623	-0.125
Mof_C 	C 	0.3273	0.6068	0.20491	-0.122
Mof_C 	C 	0.3665	0.6308	0.22096	0.061
Mof_H 	H 	0.3776	0.6209	0.2417	0.031
Mof_C 	C 	0.3018	0.5656	0.22106	0.405
Mof_C 	C 	0.43	0.698	0.22397	0.425
Mof_H 	H 	0.3217	0.6572	0.9775	0.068
Mof_H 	H 	0.3452	0.6708	0.0121	0.069
Mof_H 	H 	0.2943	0.6413	0.0104	0.068
Mof_H 	H 	0.3191	0.6557	0.0225	0.067
Mof_H 	H 	0.2956	0.6421	0.9879	0.061
Mof_H 	H 	0.3465	0.6715	0.9896	0.065
Mof_O 	O 	0.26206	0.0492	0.7072	-0.5
Mof_O 	O 	0.44563	0.23376	0.70993	-0.499
Mof_O 	O 	0.32044	0.05077	0.74777	-0.493
Mof_O 	O 	0.44461	0.18329	0.75153	-0.488
Mof_C 	C 	0.2656	0.231	0.52997	-0.082
Mof_C 	C 	0.2834	0.2097	0.5625	0.045
Mof_C 	C 	0.3355	0.2142	0.57261	-0.086
Mof_H 	H 	0.3594	0.2283	0.5586	0.047
Mof_C 	C 	0.2497	0.188	0.58395	-0.079
Mof_H 	H 	0.2152	0.1848	0.578	0.048
Mof_C 	C 	0.3509	0.1977	0.60335	-0.053
Mof_H 	H 	0.3851	0.2015	0.6099	0.039
Mof_C 	C 	0.2663	0.1711	0.61389	-0.052
Mof_H 	H 	0.243	0.1559	0.6277	0.038
Mof_C 	C 	0.3176	0.1761	0.62416	0.018
Mof_C 	C 	0.3344	0.15947	0.65802	-0.032
Mof_C 	C 	0.3737	0.1836	0.67531	0.013
Mof_H 	H 	0.3894	0.2095	0.6655	0.034
Mof_C 	C 	0.3108	0.122	0.67342	0.009
Mof_H 	H 	0.2837	0.1067	0.6629	0.029
Mof_C 	C 	0.3892	0.1697	0.70623	-0.131
Mof_C 	C 	0.3273	0.1068	0.70491	-0.131
Mof_C 	C 	0.3665	0.1308	0.72096	0.065
Mof_H 	H 	0.3776	0.1209	0.7417	0.026
Mof_C 	C 	0.3018	0.0656	0.72106	0.407
Mof_C 	C 	0.43	0.198	0.72397	0.426
Mof_H 	H 	0.3217	0.1572	0.4775	0.069
Mof_H 	H 	0.3452	0.1708	0.5121	0.068
Mof_H 	H 	0.2943	0.1413	0.5104	0.068
Mof_H 	H 	0.3191	0.1557	0.5225	0.069
Mof_H 	H 	0.2956	0.1421	0.4879	0.066
Mof_H 	H 	0.3465	0.1715	0.4896	0.068
Mof_O 	O 	0.76206	0.5492	0.7072	-0.483
Mof_O 	O 	0.94563	0.73376	0.70993	-0.47
Mof_O 	O 	0.82044	0.55077	0.74777	-0.473
Mof_O 	O 	0.94461	0.68329	0.75153	-0.458
Mof_C 	C 	0.7656	0.731	0.52997	-0.086
Mof_C 	C 	0.7834	0.7097	0.5625	0.052
Mof_C 	C 	0.8355	0.7142	0.57261	-0.088
Mof_H 	H 	0.8594	0.7283	0.5586	0.057
Mof_C 	C 	0.7497	0.688	0.58395	-0.082
Mof_H 	H 	0.7152	0.6848	0.578	0.056
Mof_C 	C 	0.8509	0.6977	0.60335	-0.046
Mof_H 	H 	0.8851	0.7015	0.6099	0.048
Mof_C 	C 	0.7663	0.6711	0.61389	-0.045
Mof_H 	H 	0.743	0.6559	0.6277	0.042
Mof_C 	C 	0.8176	0.6761	0.62416	0.017
Mof_C 	C 	0.8344	0.65947	0.65802	-0.018
Mof_C 	C 	0.8737	0.6836	0.67531	0.004
Mof_H 	H 	0.8894	0.7095	0.6655	0.045
Mof_C 	C 	0.8108	0.622	0.67342	0.002
Mof_H 	H 	0.7837	0.6067	0.6629	0.039
Mof_C 	C 	0.8892	0.6697	0.70623	-0.112
Mof_C 	C 	0.8273	0.6068	0.70491	-0.114
Mof_C 	C 	0.8665	0.6308	0.72096	0.056
Mof_H 	H 	0.8776	0.6209	0.7417	0.038
Mof_C 	C 	0.8018	0.5656	0.72106	0.403
Mof_C 	C 	0.93	0.698	0.72397	0.418
Mof_H 	H 	0.8217	0.6572	0.4775	0.077
Mof_H 	H 	0.8452	0.6708	0.5121	0.076
Mof_H 	H 	0.7943	0.6413	0.5104	0.076
Mof_H 	H 	0.8191	0.6557	0.5225	0.076
Mof_H 	H 	0.7956	0.6421	0.4879	0.074
Mof_H 	H 	0.8465	0.6715	0.4896	0.076
Mof_O 	O 	0.76206	0.0492	0.2072	-0.497
Mof_O 	O 	0.94563	0.23376	0.20993	-0.472
Mof_O 	O 	0.82044	0.05077	0.24777	-0.487
Mof_O 	O 	0.94461	0.18329	0.25153	-0.461
Mof_C 	C 	0.7656	0.231	0.02997	-0.08
Mof_C 	C 	0.7834	0.2097	0.0625	0.049
Mof_C 	C 	0.8355	0.2142	0.07261	-0.086
Mof_H 	H 	0.8594	0.2283	0.0586	0.055
Mof_C 	C 	0.7497	0.188	0.08395	-0.08
Mof_H 	H 	0.7152	0.1848	0.078	0.053
Mof_C 	C 	0.8509	0.1977	0.10335	-0.049
Mof_H 	H 	0.8851	0.2015	0.1099	0.047
Mof_C 	C 	0.7663	0.1711	0.11389	-0.048
Mof_H 	H 	0.743	0.1559	0.1277	0.04
Mof_C 	C 	0.8176	0.1761	0.12416	0.018
Mof_C 	C 	0.8344	0.15947	0.15802	-0.023
Mof_C 	C 	0.8737	0.1836	0.17531	0.007
Mof_H 	H 	0.8894	0.2095	0.1655	0.042
Mof_C 	C 	0.8108	0.122	0.17342	0.005
Mof_H 	H 	0.7837	0.1067	0.1629	0.033
Mof_C 	C 	0.8892	0.1697	0.20623	-0.117
Mof_C 	C 	0.8273	0.1068	0.20491	-0.122
Mof_C 	C 	0.8665	0.1308	0.22096	0.059
Mof_H 	H 	0.8776	0.1209	0.2417	0.033
Mof_C 	C 	0.8018	0.0656	0.22106	0.405
Mof_C 	C 	0.93	0.198	0.22397	0.42
Mof_H 	H 	0.8217	0.1572	0.9775	0.069
Mof_H 	H 	0.8452	0.1708	0.0121	0.071
Mof_H 	H 	0.7943	0.1413	0.0104	0.068
Mof_H 	H 	0.8191	0.1557	0.0225	0.068
Mof_H 	H 	0.7956	0.1421	0.9879	0.062
Mof_H 	H 	0.8465	0.1715	0.9896	0.066
Mof_O 	O 	0.73794	0.4508	0.2072	-0.482
Mof_O 	O 	0.55437	0.26624	0.20993	-0.498
Mof_O 	O 	0.67956	0.44923	0.24777	-0.478
Mof_O 	O 	0.55539	0.31671	0.25153	-0.485
Mof_C 	C 	0.7344	0.269	0.02997	-0.082
Mof_C 	C 	0.7166	0.2903	0.0625	0.05
Mof_C 	C 	0.6645	0.2858	0.07261	-0.087
Mof_H 	H 	0.6406	0.2717	0.0586	0.048
Mof_C 	C 	0.7503	0.312	0.08395	-0.08
Mof_H 	H 	0.7848	0.3152	0.078	0.059
Mof_C 	C 	0.6491	0.3023	0.10335	-0.049
Mof_H 	H 	0.6149	0.2985	0.1099	0.04
Mof_C 	C 	0.7337	0.3289	0.11389	-0.046
Mof_H 	H 	0.757	0.3441	0.1277	0.045
Mof_C 	C 	0.6824	0.3239	0.12416	0.017
Mof_C 	C 	0.6656	0.34053	0.15802	-0.025
Mof_C 	C 	0.6263	0.3164	0.17531	0.01
Mof_H 	H 	0.6106	0.2905	0.1655	0.036
Mof_C 	C 	0.6892	0.378	0.17342	0.005
Mof_H 	H 	0.7163	0.3933	0.1629	0.038
Mof_C 	C 	0.6108	0.3303	0.20623	-0.125
Mof_C 	C 	0.6727	0.3932	0.20491	-0.12
Mof_C 	C 	0.6335	0.3692	0.22096	0.061
Mof_H 	H 	0.6224	0.3791	0.2417	0.031
Mof_C 	C 	0.6982	0.4344	0.22106	0.404
Mof_C 	C 	0.57	0.302	0.22397	0.425
Mof_H 	H 	0.6783	0.3428	0.9775	0.069
Mof_H 	H 	0.6548	0.3292	0.0121	0.07
Mof_H 	H 	0.7057	0.3587	0.0104	0.07
Mof_H 	H 	0.6809	0.3443	0.0225	0.069
Mof_H 	H 	0.7044	0.3579	0.9879	0.064
Mof_H 	H 	0.6535	0.3285	0.9896	0.066
Mof_O 	O 	0.73794	0.9508	0.7072	-0.46
Mof_O 	O 	0.55437	0.76624	0.70993	-0.497
Mof_O 	O 	0.67956	0.94923	0.74777	-0.456
Mof_O 	O 	0.55539	0.81671	0.75153	-0.481
Mof_C 	C 	0.7344	0.769	0.52997	-0.088
Mof_C 	C 	0.7166	0.7903	0.5625	0.054
Mof_C 	C 	0.6645	0.7858	0.57261	-0.09
Mof_H 	H 	0.6406	0.7717	0.5586	0.05
Mof_C 	C 	0.7503	0.812	0.58395	-0.082
Mof_H 	H 	0.7848	0.8152	0.578	0.063
Mof_C 	C 	0.6491	0.8023	0.60335	-0.045
Mof_H 	H 	0.6149	0.7985	0.6099	0.041
Mof_C 	C 	0.7337	0.8289	0.61389	-0.042
Mof_H 	H 	0.757	0.8441	0.6277	0.047
Mof_C 	C 	0.6824	0.8239	0.62416	0.016
Mof_C 	C 	0.6656	0.84053	0.65802	-0.019
Mof_C 	C 	0.6263	0.8164	0.67531	0.006
Mof_H 	H 	0.6106	0.7905	0.6655	0.038
Mof_C 	C 	0.6892	0.878	0.67342	0
Mof_H 	H 	0.7163	0.8933	0.6629	0.045
Mof_C 	C 	0.6108	0.8303	0.70623	-0.119
Mof_C 	C 	0.6727	0.8932	0.70491	-0.11
Mof_C 	C 	0.6335	0.8692	0.72096	0.056
Mof_H 	H 	0.6224	0.8791	0.7417	0.036
Mof_C 	C 	0.6982	0.9344	0.72106	0.399
Mof_C 	C 	0.57	0.802	0.72397	0.423
Mof_H 	H 	0.6783	0.8428	0.4775	0.078
Mof_H 	H 	0.6548	0.8292	0.5121	0.075
Mof_H 	H 	0.7057	0.8587	0.5104	0.078
Mof_H 	H 	0.6809	0.8443	0.5225	0.077
Mof_H 	H 	0.7044	0.8579	0.4879	0.076
Mof_H 	H 	0.6535	0.8285	0.4896	0.076
Mof_O 	O 	0.23794	0.4508	0.7072	-0.486
Mof_O 	O 	0.05437	0.26624	0.70993	-0.515
Mof_O 	O 	0.17956	0.44923	0.74777	-0.484
Mof_O 	O 	0.05539	0.31671	0.75153	-0.501
Mof_C 	C 	0.2344	0.269	0.52997	-0.084
Mof_C 	C 	0.2166	0.2903	0.5625	0.047
Mof_C 	C 	0.1645	0.2858	0.57261	-0.088
Mof_H 	H 	0.1406	0.2717	0.5586	0.04
Mof_C 	C 	0.2503	0.312	0.58395	-0.08
Mof_H 	H 	0.2848	0.3152	0.578	0.054
Mof_C 	C 	0.1491	0.3023	0.60335	-0.053
Mof_H 	H 	0.1149	0.2985	0.6099	0.032
Mof_C 	C 	0.2337	0.3289	0.61389	-0.049
Mof_H 	H 	0.257	0.3441	0.6277	0.043
Mof_C 	C 	0.1824	0.3239	0.62416	0.017
Mof_C 	C 	0.1656	0.34053	0.65802	-0.032
Mof_C 	C 	0.1263	0.3164	0.67531	0.014
Mof_H 	H 	0.1106	0.2905	0.6655	0.029
Mof_C 	C 	0.1892	0.378	0.67342	0.008
Mof_H 	H 	0.2163	0.3933	0.6629	0.034
Mof_C 	C 	0.1108	0.3303	0.70623	-0.136
Mof_C 	C 	0.1727	0.3932	0.70491	-0.128
Mof_C 	C 	0.1335	0.3692	0.72096	0.065
Mof_H 	H 	0.1224	0.3791	0.7417	0.024
Mof_C 	C 	0.1982	0.4344	0.72106	0.406
Mof_C 	C 	0.07	0.302	0.72397	0.427
Mof_H 	H 	0.1783	0.3428	0.4775	0.07
Mof_H 	H 	0.1548	0.3292	0.5121	0.067
Mof_H 	H 	0.2057	0.3587	0.5104	0.07
Mof_H 	H 	0.1809	0.3443	0.5225	0.07
Mof_H 	H 	0.2044	0.3579	0.4879	0.068
Mof_H 	H 	0.1535	0.3285	0.4896	0.068
Mof_O 	O 	0.23794	0.9508	0.2072	-0.463
Mof_O 	O 	0.05437	0.76624	0.20993	-0.513
Mof_O 	O 	0.17956	0.94923	0.24777	-0.462
Mof_O 	O 	0.05539	0.81671	0.25153	-0.497
Mof_C 	C 	0.2344	0.769	0.02997	-0.083
Mof_C 	C 	0.2166	0.7903	0.0625	0.05
Mof_C 	C 	0.1645	0.7858	0.07261	-0.088
Mof_H 	H 	0.1406	0.7717	0.0586	0.044
Mof_C 	C 	0.2503	0.812	0.08395	-0.079
Mof_H 	H 	0.2848	0.8152	0.078	0.058
Mof_C 	C 	0.1491	0.8023	0.10335	-0.049
Mof_H 	H 	0.1149	0.7985	0.1099	0.034
Mof_C 	C 	0.2337	0.8289	0.11389	-0.046
Mof_H 	H 	0.257	0.8441	0.1277	0.045
Mof_C 	C 	0.1824	0.8239	0.12416	0.017
Mof_C 	C 	0.1656	0.84053	0.15802	-0.026
Mof_C 	C 	0.1263	0.8164	0.17531	0.01
Mof_H 	H 	0.1106	0.7905	0.1655	0.031
Mof_C 	C 	0.1892	0.878	0.17342	0.004
Mof_H 	H 	0.2163	0.8933	0.1629	0.041
Mof_C 	C 	0.1108	0.8303	0.20623	-0.13
Mof_C 	C 	0.1727	0.8932	0.20491	-0.118
Mof_C 	C 	0.1335	0.8692	0.22096	0.06
Mof_H 	H 	0.1224	0.8791	0.2417	0.03
Mof_C 	C 	0.1982	0.9344	0.22106	0.401
Mof_C 	C 	0.07	0.802	0.22397	0.426
Mof_H 	H 	0.1783	0.8428	0.9775	0.069
Mof_H 	H 	0.1548	0.8292	0.0121	0.069
Mof_H 	H 	0.2057	0.8587	0.0104	0.071
Mof_H 	H 	0.1809	0.8443	0.0225	0.068
Mof_H 	H 	0.2044	0.8579	0.9879	0.064
Mof_H 	H 	0.1535	0.8285	0.9896	0.065
Mof_Zn	Zn	0.5	0.21686	0.22177	1.195
Mof_Zn	Zn	0.5	0.71686	0.72177	1.196
Mof_Zn	Zn	-9.34421e-33	0.21686	0.72177	1.176
Mof_Zn	Zn	4.67901e-33	0.71686	0.22177	1.177
Mof_Zn	Zn	0.5	0.78314	0.22177	1.197
Mof_Zn	Zn	0.5	0.28314	0.72177	1.196
Mof_Zn	Zn	-9.34421e-33	0.78314	0.72177	1.178
Mof_Zn	Zn	1.29185e-33	0.28314	0.22177	1.177
Mof_Zn	Zn	0.5	0.21686	0.77823	1.195
Mof_Zn	Zn	0.5	0.71686	0.27823	1.196
Mof_Zn	Zn	-5.15358e-33	0.21686	0.27823	1.176
Mof_Zn	Zn	-9.01532e-33	0.71686	0.77823	1.177
Mof_Zn	Zn	0.5	0.78314	0.77823	1.197
Mof_Zn	Zn	0.5	0.28314	0.27823	1.196
Mof_Zn	Zn	-8.54074e-33	0.78314	0.27823	1.178
Mof_Zn	Zn	1.8082e-32	0.28314	0.77823	1.177
Mof_Zn	Zn	0.21112	0.5	0.22284	1.195
Mof_Zn	Zn	0.21112	1.35486e-32	0.72284	1.179
Mof_Zn	Zn	0.71112	0.5	0.72284	1.196
Mof_Zn	Zn	0.71112	-3.38716e-33	0.22284	1.18
Mof_Zn	Zn	0.78888	0.5	0.22284	1.198
Mof_Zn	Zn	0.78888	1.35486e-32	0.72284	1.182
Mof_Zn	Zn	0.28888	0.5	0.72284	1.196
Mof_Zn	Zn	0.28888	-3.38716e-33	0.22284	1.18
Mof_Zn	Zn	0.78888	0.5	0.77716	1.197
Mof_Zn	Zn	0.78888	-3.38716e-33	0.27716	1.182
Mof_Zn	Zn	0.28888	0.5	0.27716	1.196
Mof_Zn	Zn	0.28888	-1.35486e-32	0.77716	1.18
Mof_Zn	Zn	0.21112	0.5	0.77716	1.195
Mof_Zn	Zn	0.21112	-3.38716e-33	0.27716	1.179
Mof_Zn	Zn	0.71112	0.5	0.27716	1.196
Mof_Zn	Zn	0.71112	-1.35486e-32	0.77716	1.18
Mof_C 	C 	0.3138	0.3341	-0	-0.796
Mof_C 	C 	0.2823	0.2893	-0	0.207
Mof_C 	C 	0.3138	0.8341	0.5	-0.89
Mof_C 	C 	0.2823	0.7893	0.5	0.226
Mof_C 	C 	0.8138	0.3341	0.5	-0.893
Mof_C 	C 	0.7823	0.2893	0.5	0.228
Mof_C 	C 	0.8138	0.8341	-0	-0.865
Mof_C 	C 	0.7823	0.7893	-0	0.231
Mof_C 	C 	0.6862	0.6659	-0	-0.8
Mof_C 	C 	0.7177	0.7107	-0	0.205
Mof_C 	C 	0.6862	0.1659	0.5	-0.831
Mof_C 	C 	0.7177	0.2107	0.5	0.202
Mof_C 	C 	0.1862	0.6659	0.5	-0.826
Mof_C 	C 	0.2177	0.7107	0.5	0.2
Mof_C 	C 	0.1862	0.1659	-0	-0.736
Mof_C 	C 	0.2177	0.2107	-0	0.183
Mof_C 	C 	0.6862	0.3341	-0	-0.804
Mof_C 	C 	0.7177	0.2893	-0	0.209
Mof_C 	C 	0.6862	0.8341	0.5	-0.898
Mof_C 	C 	0.7177	0.7893	0.5	0.227
Mof_C 	C 	0.1862	0.3341	0.5	-0.83
Mof_C 	C 	0.2177	0.2893	0.5	0.204
Mof_C 	C 	0.1862	0.8341	-0	-0.802
Mof_C 	C 	0.2177	0.7893	-0	0.208
Mof_C 	C 	0.3138	0.6659	-0	-0.792
Mof_C 	C 	0.2823	0.7107	-0	0.203
Mof_C 	C 	0.3138	0.1659	0.5	-0.822
Mof_C 	C 	0.2823	0.2107	0.5	0.201
Mof_C 	C 	0.8138	0.6659	0.5	-0.889
Mof_C 	C 	0.7823	0.7107	0.5	0.224
Mof_C 	C 	0.8138	0.1659	-0	-0.798
Mof_C 	C 	0.7823	0.2107	-0	0.206
_end
