data_functionalizedCrystal
_audit_creation_method	'EQeq! by Chris Wilmer'
_symmetry_space_group_name_H-M	'P1'
_symmetry_Int_Tables_number	1
_symmetry_cell_setting	triclinic
loop_
_symmetry_equiv_pos_as_xyz
  x,y,z
_cell_length_a	15.9295
_cell_length_b	15.9295
_cell_length_c	19.72
_cell_angle_alpha	90
_cell_angle_beta	90
_cell_angle_gamma	120
loop_
_atom_site_label
_atom_site_type_symbol
_atom_site_fract_x
_atom_site_fract_y
_atom_site_fract_z
_atom_site_charge
Mof_O 	O 	0.4911	0.8394	0.3911	-0.438
Mof_N 	N 	0.6342	0.1802	0.7406	-0.224
Mof_C 	C 	0.54	0.9364	0.5138	-0.023
Mof_C 	C 	0.5698	0.9926	0.5712	-0.088
Mof_H 	H 	0.5713	0.9013	0.501	0.036
Mof_H 	H 	0.6225	0.998	0.5972	0.047
Mof_C 	C 	0.6336	0.1324	0.6866	0.102
Mof_H 	H 	0.6858	0.1232	0.6732	-0.029
Mof_C 	C 	0.5887	0.0404	0.5493	-0.052
Mof_H 	H 	0.6556	0.0806	0.5591	0.042
Mof_C 	C 	0.561	0.9812	0.4932	0.045
Mof_H 	H 	0.6084	0.9756	0.4674	0.007
Mof_O 	O 	0.1606	0.6517	0.3911	-0.439
Mof_N 	N 	0.8198	0.454	0.7406	-0.225
Mof_C 	C 	0.0636	0.6036	0.5138	-0.023
Mof_C 	C 	0.0074	0.5772	0.5712	-0.088
Mof_H 	H 	0.0987	0.67	0.501	0.035
Mof_H 	H 	0.002	0.6245	0.5972	0.047
Mof_C 	C 	0.8676	0.5012	0.6866	0.102
Mof_H 	H 	0.8768	0.5626	0.6732	-0.029
Mof_C 	C 	0.9596	0.5483	0.5493	-0.052
Mof_H 	H 	0.9194	0.575	0.5591	0.041
Mof_C 	C 	0.0188	0.5798	0.4932	0.045
Mof_H 	H 	0.0244	0.6328	0.4674	0.007
Mof_O 	O 	0.3483	0.5089	0.3911	-0.438
Mof_N 	N 	0.546	0.3658	0.7406	-0.225
Mof_C 	C 	0.3964	0.46	0.5138	0.017
Mof_C 	C 	0.4228	0.4302	0.5712	-0.078
Mof_H 	H 	0.33	0.4287	0.501	0.023
Mof_H 	H 	0.3755	0.3775	0.5972	0.047
Mof_C 	C 	0.4988	0.3664	0.6866	0.101
Mof_H 	H 	0.4374	0.3142	0.6732	-0.03
Mof_C 	C 	0.4517	0.4113	0.5493	-0.06
Mof_H 	H 	0.425	0.3444	0.5591	0.042
Mof_C 	C 	0.4202	0.439	0.4932	0.008
Mof_H 	H 	0.3672	0.3916	0.4674	0.02
Mof_O 	O 	0.5089	0.1606	0.8911	-0.434
Mof_N 	N 	0.3658	0.8198	0.2406	-0.226
Mof_C 	C 	0.46	0.0636	0.0138	0.057
Mof_C 	C 	0.4302	0.0074	0.0712	-0.153
Mof_H 	H 	0.4287	0.0987	0.001	0.004
Mof_H 	H 	0.3775	0.002	0.0972	0.071
Mof_C 	C 	0.3664	0.8676	0.1866	0.099
Mof_H 	H 	0.3142	0.8768	0.1732	-0.032
Mof_C 	C 	0.4113	0.9596	0.0493	0.011
Mof_H 	H 	0.3444	0.9194	0.0591	0.014
Mof_C 	C 	0.439	0.0188	0.9932	-0.032
Mof_H 	H 	0.3916	0.0244	0.9674	0.039
Mof_O 	O 	0.8394	0.3483	0.8911	-0.434
Mof_N 	N 	0.1802	0.546	0.2406	-0.225
Mof_C 	C 	0.9364	0.3964	0.0138	0.058
Mof_C 	C 	0.9926	0.4228	0.0712	-0.152
Mof_H 	H 	0.9013	0.33	0.001	0.005
Mof_H 	H 	0.998	0.3755	0.0972	0.072
Mof_C 	C 	0.1324	0.4988	0.1866	0.099
Mof_H 	H 	0.1232	0.4374	0.1732	-0.031
Mof_C 	C 	0.0404	0.4517	0.0493	0.011
Mof_H 	H 	0.0806	0.425	0.0591	0.015
Mof_C 	C 	0.9812	0.4202	0.9932	-0.032
Mof_H 	H 	0.9756	0.3672	0.9674	0.039
Mof_O 	O 	0.6517	0.4911	0.8911	-0.435
Mof_N 	N 	0.454	0.6342	0.2406	-0.225
Mof_C 	C 	0.6036	0.54	0.0138	0.018
Mof_C 	C 	0.5772	0.5698	0.0712	-0.164
Mof_H 	H 	0.67	0.5713	0.001	0.017
Mof_H 	H 	0.6245	0.6225	0.0972	0.073
Mof_C 	C 	0.5012	0.6336	0.1866	0.101
Mof_H 	H 	0.5626	0.6858	0.1732	-0.031
Mof_C 	C 	0.5483	0.5887	0.0493	0.021
Mof_H 	H 	0.575	0.6556	0.0591	0.013
Mof_C 	C 	0.5798	0.561	0.9932	0.006
Mof_H 	H 	0.6328	0.6084	0.9674	0.026
Mof_O 	O 	0.1606	0.5089	0.3911	-0.439
Mof_N 	N 	0.8198	0.3658	0.7406	-0.225
Mof_C 	C 	0.0636	0.46	0.5138	-0.023
Mof_C 	C 	0.0074	0.4302	0.5712	-0.088
Mof_H 	H 	0.0987	0.4287	0.501	0.036
Mof_H 	H 	0.002	0.3775	0.5972	0.047
Mof_C 	C 	0.8676	0.3664	0.6866	0.102
Mof_H 	H 	0.8768	0.3142	0.6732	-0.029
Mof_C 	C 	0.9596	0.4113	0.5493	-0.052
Mof_H 	H 	0.9194	0.3444	0.5591	0.042
Mof_C 	C 	0.0188	0.439	0.4932	0.045
Mof_H 	H 	0.0244	0.3916	0.4674	0.007
Mof_O 	O 	0.3483	0.8394	0.3911	-0.439
Mof_N 	N 	0.546	0.1802	0.7406	-0.225
Mof_C 	C 	0.3964	0.9364	0.5138	-0.023
Mof_C 	C 	0.4228	0.9926	0.5712	-0.088
Mof_H 	H 	0.33	0.9013	0.501	0.035
Mof_H 	H 	0.3755	0.998	0.5972	0.047
Mof_C 	C 	0.4988	0.1324	0.6866	0.102
Mof_H 	H 	0.4374	0.1232	0.6732	-0.029
Mof_C 	C 	0.4517	0.0404	0.5493	-0.052
Mof_H 	H 	0.425	0.0806	0.5591	0.041
Mof_C 	C 	0.4202	0.9812	0.4932	0.045
Mof_H 	H 	0.3672	0.9756	0.4674	0.007
Mof_O 	O 	0.4911	0.6517	0.3911	-0.438
Mof_N 	N 	0.6342	0.454	0.7406	-0.225
Mof_C 	C 	0.54	0.6036	0.5138	0.017
Mof_C 	C 	0.5698	0.5772	0.5712	-0.078
Mof_H 	H 	0.5713	0.67	0.501	0.023
Mof_H 	H 	0.6225	0.6245	0.5972	0.047
Mof_C 	C 	0.6336	0.5012	0.6866	0.101
Mof_H 	H 	0.6858	0.5626	0.6732	-0.03
Mof_C 	C 	0.5887	0.5483	0.5493	-0.06
Mof_H 	H 	0.6556	0.575	0.5591	0.042
Mof_C 	C 	0.561	0.5798	0.4932	0.008
Mof_H 	H 	0.6084	0.6328	0.4674	0.02
Mof_O 	O 	0.8394	0.4911	0.8911	-0.434
Mof_N 	N 	0.1802	0.6342	0.2406	-0.226
Mof_C 	C 	0.9364	0.54	0.0138	0.057
Mof_C 	C 	0.9926	0.5698	0.0712	-0.153
Mof_H 	H 	0.9013	0.5713	0.001	0.004
Mof_H 	H 	0.998	0.6225	0.0972	0.071
Mof_C 	C 	0.1324	0.6336	0.1866	0.099
Mof_H 	H 	0.1232	0.6858	0.1732	-0.032
Mof_C 	C 	0.0404	0.5887	0.0493	0.011
Mof_H 	H 	0.0806	0.6556	0.0591	0.014
Mof_C 	C 	0.9812	0.561	0.9932	-0.032
Mof_H 	H 	0.9756	0.6084	0.9674	0.039
Mof_O 	O 	0.6517	0.1606	0.8911	-0.434
Mof_N 	N 	0.454	0.8198	0.2406	-0.225
Mof_C 	C 	0.6036	0.0636	0.0138	0.058
Mof_C 	C 	0.5772	0.0074	0.0712	-0.152
Mof_H 	H 	0.67	0.0987	0.001	0.005
Mof_H 	H 	0.6245	0.002	0.0972	0.072
Mof_C 	C 	0.5012	0.8676	0.1866	0.099
Mof_H 	H 	0.5626	0.8768	0.1732	-0.031
Mof_C 	C 	0.5483	0.9596	0.0493	0.011
Mof_H 	H 	0.575	0.9194	0.0591	0.015
Mof_C 	C 	0.5798	0.0188	0.9932	-0.032
Mof_H 	H 	0.6328	0.0244	0.9674	0.039
Mof_O 	O 	0.5089	0.3483	0.8911	-0.435
Mof_N 	N 	0.3658	0.546	0.2406	-0.225
Mof_C 	C 	0.46	0.3964	0.0138	0.018
Mof_C 	C 	0.4302	0.4228	0.0712	-0.164
Mof_H 	H 	0.4287	0.33	0.001	0.017
Mof_H 	H 	0.3775	0.3755	0.0972	0.073
Mof_C 	C 	0.3664	0.4988	0.1866	0.101
Mof_H 	H 	0.3142	0.4374	0.1732	-0.031
Mof_C 	C 	0.4113	0.4517	0.0493	0.021
Mof_H 	H 	0.3444	0.425	0.0591	0.013
Mof_C 	C 	0.439	0.4202	0.9932	0.006
Mof_H 	H 	0.3916	0.3672	0.9674	0.026
Mof_Co	Co	0.47672	0.73836	0.3171	1.132
Mof_Co	Co	0.26164	0.73836	0.3171	1.132
Mof_Co	Co	0.26164	0.52328	0.3171	1.132
Mof_Co	Co	0.52328	0.26164	0.8171	1.133
Mof_Co	Co	0.73836	0.26164	0.8171	1.133
Mof_Co	Co	0.73836	0.47672	0.8171	1.133
Mof_O 	O 	0.33333	0.66667	0.3384	-0.598
Mof_O 	O 	0.66667	0.33333	0.8384	-0.597
Mof_C 	C 	0.43185	0.8637	0.4129	0.379
Mof_C 	C 	0.46495	0.9299	0.4742	-0.117
Mof_C 	C 	0.52125	0.0425	0.5912	0.124
Mof_N 	N 	0.5487	0.0974	0.6519	-0.162
Mof_C 	C 	0.1363	0.56815	0.4129	0.379
Mof_C 	C 	0.0701	0.53505	0.4742	-0.117
Mof_C 	C 	0.9575	0.47875	0.5912	0.124
Mof_N 	N 	0.9026	0.4513	0.6519	-0.162
Mof_C 	C 	0.43185	0.56815	0.4129	0.379
Mof_C 	C 	0.46495	0.53505	0.4742	-0.116
Mof_C 	C 	0.52125	0.47875	0.5912	0.117
Mof_N 	N 	0.5487	0.4513	0.6519	-0.162
Mof_C 	C 	0.56815	0.1363	0.9129	0.376
Mof_C 	C 	0.53505	0.0701	0.9742	-0.102
Mof_C 	C 	0.47875	0.9575	0.0912	0.106
Mof_N 	N 	0.4513	0.9026	0.1519	-0.161
Mof_C 	C 	0.8637	0.43185	0.9129	0.376
Mof_C 	C 	0.9299	0.46495	0.9742	-0.102
Mof_C 	C 	0.0425	0.52125	0.0912	0.106
Mof_N 	N 	0.0974	0.5487	0.1519	-0.161
Mof_C 	C 	0.56815	0.43185	0.9129	0.377
Mof_C 	C 	0.53505	0.46495	0.9742	-0.103
Mof_C 	C 	0.47875	0.52125	0.0912	0.113
Mof_N 	N 	0.4513	0.5487	0.1519	-0.161
_end
