# CIF file generated by openbabel 2.4.1, see http://openbabel.sf.net
data_I
_chemical_name_common 'image0'
_cell_length_a 50.817
_cell_length_b 50.817
_cell_length_c 50.817
_cell_angle_alpha 90
_cell_angle_beta 90
_cell_angle_gamma 90
_space_group_name_H-M_alt 'P 1'
_space_group_name_Hall 'P 1'
loop_
    _symmetry_equiv_pos_as_xyz
    x,y,z
loop_
    _atom_site_label
    _atom_site_type_symbol
    _atom_site_fract_x
    _atom_site_fract_y
    _atom_site_fract_z
    _atom_site_occupancy
    S1      S    0.70816   0.87629   0.08698   1.000
    O1      O    0.83434   0.87509   0.03738   1.000
    O2      O    0.82019   0.88822   0.07721   1.000
    O3      O    0.66120   0.87558   0.12008   1.000
    C1      C    0.81735   0.88058   0.05402   1.000
    C2      C    0.78890   0.87794   0.04544   1.000
    C3      C    0.74933   0.87562   0.02015   1.000
    C4      C    0.74223   0.87586   0.04682   1.000
    C5      C    0.71545   0.87559   0.05395   1.000
    C6      C    0.76866   0.87930   0.05944   1.000
    H1      H    0.77010   0.88080   0.07780   1.000
    S2      S    0.78204   0.87666   0.01052   1.000
    C7      C    0.77823   0.87589   0.02214   1.000
    H2      H    0.78870   0.87450   0.00700   1.000
    S3      S    0.76461   0.87696   0.07156   1.000
    C8      C    0.69835   0.87633   0.07717   1.000
    H3      H    0.70620   0.87570   0.09390   1.000
    S4      S    0.70816   0.37629   0.58698   1.000
    O4      O    0.83434   0.37509   0.53738   1.000
    O5      O    0.82019   0.38822   0.57721   1.000
    O6      O    0.66120   0.37558   0.62008   1.000
    C9      C    0.81735   0.38058   0.55402   1.000
    C10     C    0.78890   0.37794   0.54544   1.000
    C11     C    0.74933   0.37562   0.52015   1.000
    C12     C    0.74223   0.37586   0.54682   1.000
    C13     C    0.71545   0.37559   0.55395   1.000
    C14     C    0.76866   0.37930   0.55944   1.000
    H4      H    0.77010   0.38080   0.57780   1.000
    S5      S    0.78204   0.37666   0.51052   1.000
    C15     C    0.77823   0.37589   0.52214   1.000
    H5      H    0.78870   0.37450   0.50700   1.000
    S6      S    0.76461   0.37696   0.57156   1.000
    C16     C    0.69835   0.37633   0.57717   1.000
    H6      H    0.70620   0.37570   0.59390   1.000
    S7      S    0.20816   0.87629   0.58698   1.000
    O7      O    0.33434   0.87509   0.53738   1.000
    O8      O    0.32019   0.88822   0.57721   1.000
    O9      O    0.16120   0.87558   0.62008   1.000
    C17     C    0.31735   0.88058   0.55402   1.000
    C18     C    0.28890   0.87794   0.54544   1.000
    C19     C    0.24933   0.87562   0.52015   1.000
    C20     C    0.24223   0.87586   0.54682   1.000
    C21     C    0.21545   0.87559   0.55395   1.000
    C22     C    0.26866   0.87930   0.55944   1.000
    H7      H    0.27010   0.88080   0.57780   1.000
    S8      S    0.28204   0.87666   0.51052   1.000
    C23     C    0.27823   0.87589   0.52214   1.000
    H8      H    0.28870   0.87450   0.50700   1.000
    S9      S    0.26461   0.87696   0.57156   1.000
    C24     C    0.19835   0.87633   0.57717   1.000
    H9      H    0.20620   0.87570   0.59390   1.000
    S10     S    0.20816   0.37629   0.08698   1.000
    O10     O    0.33434   0.37509   0.03738   1.000
    O11     O    0.32019   0.38822   0.07721   1.000
    O12     O    0.16120   0.37558   0.12008   1.000
    C25     C    0.31735   0.38058   0.05402   1.000
    C26     C    0.28890   0.37794   0.04544   1.000
    C27     C    0.24933   0.37562   0.02015   1.000
    C28     C    0.24223   0.37586   0.04682   1.000
    C29     C    0.21545   0.37559   0.05395   1.000
    C30     C    0.26866   0.37930   0.05944   1.000
    H10     H    0.27010   0.38080   0.07780   1.000
    S11     S    0.28204   0.37666   0.01052   1.000
    C31     C    0.27823   0.37589   0.02214   1.000
    H11     H    0.28870   0.37450   0.00700   1.000
    S12     S    0.26461   0.37696   0.07156   1.000
    C32     C    0.19835   0.37633   0.07717   1.000
    H12     H    0.20620   0.37570   0.09390   1.000
    S13     S    0.04184   0.37371   0.58698   1.000
    O13     O    0.91566   0.37491   0.53738   1.000
    O14     O    0.92981   0.36178   0.57721   1.000
    O15     O    0.08880   0.37442   0.62008   1.000
    C33     C    0.93265   0.36942   0.55402   1.000
    C34     C    0.96110   0.37206   0.54544   1.000
    C35     C    0.00067   0.37438   0.52015   1.000
    C36     C    0.00777   0.37414   0.54682   1.000
    C37     C    0.03455   0.37441   0.55395   1.000
    C38     C    0.98134   0.37070   0.55944   1.000
    H13     H    0.97990   0.36920   0.57780   1.000
    S14     S    0.96796   0.37334   0.51052   1.000
    C39     C    0.97177   0.37411   0.52214   1.000
    H14     H    0.96130   0.37550   0.50700   1.000
    S15     S    0.98539   0.37304   0.57156   1.000
    C40     C    0.05165   0.37367   0.57717   1.000
    H15     H    0.04380   0.37430   0.59390   1.000
    S16     S    0.04184   0.87371   0.08698   1.000
    O16     O    0.91566   0.87491   0.03738   1.000
    O17     O    0.92981   0.86178   0.07721   1.000
    O18     O    0.08880   0.87442   0.12008   1.000
    C41     C    0.93265   0.86942   0.05402   1.000
    C42     C    0.96110   0.87206   0.04544   1.000
    C43     C    0.00067   0.87438   0.02015   1.000
    C44     C    0.00777   0.87414   0.04682   1.000
    C45     C    0.03455   0.87441   0.05395   1.000
    C46     C    0.98134   0.87070   0.05944   1.000
    H16     H    0.97990   0.86920   0.07780   1.000
    S17     S    0.96796   0.87334   0.01052   1.000
    C47     C    0.97177   0.87411   0.02214   1.000
    H17     H    0.96130   0.87550   0.00700   1.000
    S18     S    0.98539   0.87304   0.07156   1.000
    C48     C    0.05165   0.87367   0.07717   1.000
    H18     H    0.04380   0.87430   0.09390   1.000
    S19     S    0.54184   0.37371   0.08698   1.000
    O19     O    0.41566   0.37491   0.03738   1.000
    O20     O    0.42981   0.36178   0.07721   1.000
    O21     O    0.58880   0.37442   0.12008   1.000
    C49     C    0.43265   0.36942   0.05402   1.000
    C50     C    0.46110   0.37206   0.04544   1.000
    C51     C    0.50067   0.37438   0.02015   1.000
    C52     C    0.50777   0.37414   0.04682   1.000
    C53     C    0.53455   0.37441   0.05395   1.000
    C54     C    0.48134   0.37070   0.05944   1.000
    H19     H    0.47990   0.36920   0.07780   1.000
    S20     S    0.46796   0.37334   0.01052   1.000
    C55     C    0.47177   0.37411   0.02214   1.000
    H20     H    0.46130   0.37550   0.00700   1.000
    S21     S    0.48539   0.37304   0.07156   1.000
    C56     C    0.55165   0.37367   0.07717   1.000
    H21     H    0.54380   0.37430   0.09390   1.000
    S22     S    0.54184   0.87371   0.58698   1.000
    O22     O    0.41566   0.87491   0.53738   1.000
    O23     O    0.42981   0.86178   0.57721   1.000
    O24     O    0.58880   0.87442   0.62008   1.000
    C57     C    0.43265   0.86942   0.55402   1.000
    C58     C    0.46110   0.87206   0.54544   1.000
    C59     C    0.50067   0.87438   0.52015   1.000
    C60     C    0.50777   0.87414   0.54682   1.000
    C61     C    0.53455   0.87441   0.55395   1.000
    C62     C    0.48134   0.87070   0.55944   1.000
    H22     H    0.47990   0.86920   0.57780   1.000
    S23     S    0.46796   0.87334   0.51052   1.000
    C63     C    0.47177   0.87411   0.52214   1.000
    H23     H    0.46130   0.87550   0.50700   1.000
    S24     S    0.48539   0.87304   0.57156   1.000
    C64     C    0.55165   0.87367   0.57717   1.000
    H24     H    0.54380   0.87430   0.59390   1.000
    S25     S    0.54184   0.37629   0.66302   1.000
    O25     O    0.41566   0.37509   0.71262   1.000
    O26     O    0.42981   0.38822   0.67279   1.000
    O27     O    0.58880   0.37558   0.62992   1.000
    C65     C    0.43265   0.38058   0.69598   1.000
    C66     C    0.46110   0.37794   0.70456   1.000
    C67     C    0.50067   0.37562   0.72985   1.000
    C68     C    0.50777   0.37586   0.70318   1.000
    C69     C    0.53455   0.37559   0.69605   1.000
    C70     C    0.48134   0.37930   0.69056   1.000
    H25     H    0.47990   0.38080   0.67220   1.000
    S26     S    0.46796   0.37666   0.73948   1.000
    C71     C    0.47177   0.37589   0.72786   1.000
    H26     H    0.46130   0.37450   0.74300   1.000
    S27     S    0.48539   0.37696   0.67844   1.000
    C72     C    0.55165   0.37633   0.67283   1.000
    H27     H    0.54380   0.37570   0.65610   1.000
    S28     S    0.54184   0.87629   0.16302   1.000
    O28     O    0.41566   0.87509   0.21262   1.000
    O29     O    0.42981   0.88822   0.17279   1.000
    O30     O    0.58880   0.87558   0.12992   1.000
    C73     C    0.43265   0.88058   0.19598   1.000
    C74     C    0.46110   0.87794   0.20456   1.000
    C75     C    0.50067   0.87562   0.22985   1.000
    C76     C    0.50777   0.87586   0.20318   1.000
    C77     C    0.53455   0.87559   0.19605   1.000
    C78     C    0.48134   0.87930   0.19056   1.000
    H28     H    0.47990   0.88080   0.17220   1.000
    S29     S    0.46796   0.87666   0.23948   1.000
    C79     C    0.47177   0.87589   0.22786   1.000
    H29     H    0.46130   0.87450   0.24300   1.000
    S30     S    0.48539   0.87696   0.17844   1.000
    C80     C    0.55165   0.87633   0.17283   1.000
    H30     H    0.54380   0.87570   0.15610   1.000
    S31     S    0.04184   0.37629   0.16302   1.000
    O31     O    0.91566   0.37509   0.21262   1.000
    O32     O    0.92981   0.38822   0.17279   1.000
    O33     O    0.08880   0.37558   0.12992   1.000
    C81     C    0.93265   0.38058   0.19598   1.000
    C82     C    0.96110   0.37794   0.20456   1.000
    C83     C    0.00067   0.37562   0.22985   1.000
    C84     C    0.00777   0.37586   0.20318   1.000
    C85     C    0.03455   0.37559   0.19605   1.000
    C86     C    0.98134   0.37930   0.19056   1.000
    H31     H    0.97990   0.38080   0.17220   1.000
    S32     S    0.96796   0.37666   0.23948   1.000
    C87     C    0.97177   0.37589   0.22786   1.000
    H32     H    0.96130   0.37450   0.24300   1.000
    S33     S    0.98539   0.37696   0.17844   1.000
    C88     C    0.05165   0.37633   0.17283   1.000
    H33     H    0.04380   0.37570   0.15610   1.000
    S34     S    0.04184   0.87629   0.66302   1.000
    O34     O    0.91566   0.87509   0.71262   1.000
    O35     O    0.92981   0.88822   0.67279   1.000
    O36     O    0.08880   0.87558   0.62992   1.000
    C89     C    0.93265   0.88058   0.69598   1.000
    C90     C    0.96110   0.87794   0.70456   1.000
    C91     C    0.00067   0.87562   0.72985   1.000
    C92     C    0.00777   0.87586   0.70318   1.000
    C93     C    0.03455   0.87559   0.69605   1.000
    C94     C    0.98134   0.87930   0.69056   1.000
    H34     H    0.97990   0.88080   0.67220   1.000
    S35     S    0.96796   0.87666   0.73948   1.000
    C95     C    0.97177   0.87589   0.72786   1.000
    H35     H    0.96130   0.87450   0.74300   1.000
    S36     S    0.98539   0.87696   0.67844   1.000
    C96     C    0.05165   0.87633   0.67283   1.000
    H36     H    0.04380   0.87570   0.65610   1.000
    S37     S    0.20816   0.87371   0.16302   1.000
    O37     O    0.33434   0.87491   0.21262   1.000
    O38     O    0.32019   0.86178   0.17279   1.000
    O39     O    0.16120   0.87442   0.12992   1.000
    C97     C    0.31735   0.86942   0.19598   1.000
    C98     C    0.28890   0.87206   0.20456   1.000
    C99     C    0.24933   0.87438   0.22985   1.000
    C100    C    0.24223   0.87414   0.20318   1.000
    C101    C    0.21545   0.87441   0.19605   1.000
    C102    C    0.26866   0.87070   0.19056   1.000
    H37     H    0.27010   0.86920   0.17220   1.000
    S38     S    0.28204   0.87334   0.23948   1.000
    C103    C    0.27823   0.87411   0.22786   1.000
    H38     H    0.28870   0.87550   0.24300   1.000
    S39     S    0.26461   0.87304   0.17844   1.000
    C104    C    0.19835   0.87367   0.17283   1.000
    H39     H    0.20620   0.87430   0.15610   1.000
    S40     S    0.20816   0.37371   0.66302   1.000
    O40     O    0.33434   0.37491   0.71262   1.000
    O41     O    0.32019   0.36178   0.67279   1.000
    O42     O    0.16120   0.37442   0.62992   1.000
    C105    C    0.31735   0.36942   0.69598   1.000
    C106    C    0.28890   0.37206   0.70456   1.000
    C107    C    0.24933   0.37438   0.72985   1.000
    C108    C    0.24223   0.37414   0.70318   1.000
    C109    C    0.21545   0.37441   0.69605   1.000
    C110    C    0.26866   0.37070   0.69056   1.000
    H40     H    0.27010   0.36920   0.67220   1.000
    S41     S    0.28204   0.37334   0.73948   1.000
    C111    C    0.27823   0.37411   0.72786   1.000
    H41     H    0.28870   0.37550   0.74300   1.000
    S42     S    0.26461   0.37304   0.67844   1.000
    C112    C    0.19835   0.37367   0.67283   1.000
    H42     H    0.20620   0.37430   0.65610   1.000
    S43     S    0.70816   0.87371   0.66302   1.000
    O43     O    0.83434   0.87491   0.71262   1.000
    O44     O    0.82019   0.86178   0.67279   1.000
    O45     O    0.66120   0.87442   0.62992   1.000
    C113    C    0.81735   0.86942   0.69598   1.000
    C114    C    0.78890   0.87206   0.70456   1.000
    C115    C    0.74933   0.87438   0.72985   1.000
    C116    C    0.74223   0.87414   0.70318   1.000
    C117    C    0.71545   0.87441   0.69605   1.000
    C118    C    0.76866   0.87070   0.69056   1.000
    H43     H    0.77010   0.86920   0.67220   1.000
    S44     S    0.78204   0.87334   0.73948   1.000
    C119    C    0.77823   0.87411   0.72786   1.000
    H44     H    0.78870   0.87550   0.74300   1.000
    S45     S    0.76461   0.87304   0.67844   1.000
    C120    C    0.69835   0.87367   0.67283   1.000
    H45     H    0.70620   0.87430   0.65610   1.000
    S46     S    0.70816   0.37371   0.16302   1.000
    O46     O    0.83434   0.37491   0.21262   1.000
    O47     O    0.82019   0.36178   0.17279   1.000
    O48     O    0.66120   0.37442   0.12992   1.000
    C121    C    0.81735   0.36942   0.19598   1.000
    C122    C    0.78890   0.37206   0.20456   1.000
    C123    C    0.74933   0.37438   0.22985   1.000
    C124    C    0.74223   0.37414   0.20318   1.000
    C125    C    0.71545   0.37441   0.19605   1.000
    C126    C    0.76866   0.37070   0.19056   1.000
    H46     H    0.77010   0.36920   0.17220   1.000
    S47     S    0.78204   0.37334   0.23948   1.000
    C127    C    0.77823   0.37411   0.22786   1.000
    H47     H    0.78870   0.37550   0.24300   1.000
    S48     S    0.76461   0.37304   0.17844   1.000
    C128    C    0.69835   0.37367   0.17283   1.000
    H48     H    0.70620   0.37430   0.15610   1.000
    S49     S    0.08698   0.70816   0.87629   1.000
    O49     O    0.03738   0.83434   0.87509   1.000
    O50     O    0.07721   0.82019   0.88822   1.000
    O51     O    0.12008   0.66120   0.87558   1.000
    C129    C    0.05402   0.81735   0.88058   1.000
    C130    C    0.04544   0.78890   0.87794   1.000
    C131    C    0.02015   0.74933   0.87562   1.000
    C132    C    0.04682   0.74223   0.87586   1.000
    C133    C    0.05395   0.71545   0.87559   1.000
    C134    C    0.05944   0.76866   0.87930   1.000
    H49     H    0.07780   0.77010   0.88080   1.000
    S50     S    0.01052   0.78204   0.87666   1.000
    C135    C    0.02214   0.77823   0.87589   1.000
    H50     H    0.00700   0.78870   0.87450   1.000
    S51     S    0.07156   0.76461   0.87696   1.000
    C136    C    0.07717   0.69835   0.87633   1.000
    H51     H    0.09390   0.70620   0.87570   1.000
    S52     S    0.08698   0.20816   0.37629   1.000
    O52     O    0.03738   0.33434   0.37509   1.000
    O53     O    0.07721   0.32019   0.38822   1.000
    O54     O    0.12008   0.16120   0.37558   1.000
    C137    C    0.05402   0.31735   0.38058   1.000
    C138    C    0.04544   0.28890   0.37794   1.000
    C139    C    0.02015   0.24933   0.37562   1.000
    C140    C    0.04682   0.24223   0.37586   1.000
    C141    C    0.05395   0.21545   0.37559   1.000
    C142    C    0.05944   0.26866   0.37930   1.000
    H52     H    0.07780   0.27010   0.38080   1.000
    S53     S    0.01052   0.28204   0.37666   1.000
    C143    C    0.02214   0.27823   0.37589   1.000
    H53     H    0.00700   0.28870   0.37450   1.000
    S54     S    0.07156   0.26461   0.37696   1.000
    C144    C    0.07717   0.19835   0.37633   1.000
    H54     H    0.09390   0.20620   0.37570   1.000
    S55     S    0.58698   0.70816   0.37629   1.000
    O55     O    0.53738   0.83434   0.37509   1.000
    O56     O    0.57721   0.82019   0.38822   1.000
    O57     O    0.62008   0.66120   0.37558   1.000
    C145    C    0.55402   0.81735   0.38058   1.000
    C146    C    0.54544   0.78890   0.37794   1.000
    C147    C    0.52015   0.74933   0.37562   1.000
    C148    C    0.54682   0.74223   0.37586   1.000
    C149    C    0.55395   0.71545   0.37559   1.000
    C150    C    0.55944   0.76866   0.37930   1.000
    H55     H    0.57780   0.77010   0.38080   1.000
    S56     S    0.51052   0.78204   0.37666   1.000
    C151    C    0.52214   0.77823   0.37589   1.000
    H56     H    0.50700   0.78870   0.37450   1.000
    S57     S    0.57156   0.76461   0.37696   1.000
    C152    C    0.57717   0.69835   0.37633   1.000
    H57     H    0.59390   0.70620   0.37570   1.000
    S58     S    0.58698   0.20816   0.87629   1.000
    O58     O    0.53738   0.33434   0.87509   1.000
    O59     O    0.57721   0.32019   0.88822   1.000
    O60     O    0.62008   0.16120   0.87558   1.000
    C153    C    0.55402   0.31735   0.88058   1.000
    C154    C    0.54544   0.28890   0.87794   1.000
    C155    C    0.52015   0.24933   0.87562   1.000
    C156    C    0.54682   0.24223   0.87586   1.000
    C157    C    0.55395   0.21545   0.87559   1.000
    C158    C    0.55944   0.26866   0.87930   1.000
    H58     H    0.57780   0.27010   0.88080   1.000
    S59     S    0.51052   0.28204   0.87666   1.000
    C159    C    0.52214   0.27823   0.87589   1.000
    H59     H    0.50700   0.28870   0.87450   1.000
    S60     S    0.57156   0.26461   0.87696   1.000
    C160    C    0.57717   0.19835   0.87633   1.000
    H60     H    0.59390   0.20620   0.87570   1.000
    S61     S    0.58698   0.04184   0.37371   1.000
    O61     O    0.53738   0.91566   0.37491   1.000
    O62     O    0.57721   0.92981   0.36178   1.000
    O63     O    0.62008   0.08880   0.37442   1.000
    C161    C    0.55402   0.93265   0.36942   1.000
    C162    C    0.54544   0.96110   0.37206   1.000
    C163    C    0.52015   0.00067   0.37438   1.000
    C164    C    0.54682   0.00777   0.37414   1.000
    C165    C    0.55395   0.03455   0.37441   1.000
    C166    C    0.55944   0.98134   0.37070   1.000
    H61     H    0.57780   0.97990   0.36920   1.000
    S62     S    0.51052   0.96796   0.37334   1.000
    C167    C    0.52214   0.97177   0.37411   1.000
    H62     H    0.50700   0.96130   0.37550   1.000
    S63     S    0.57156   0.98539   0.37304   1.000
    C168    C    0.57717   0.05165   0.37367   1.000
    H63     H    0.59390   0.04380   0.37430   1.000
    S64     S    0.58698   0.54184   0.87371   1.000
    O64     O    0.53738   0.41566   0.87491   1.000
    O65     O    0.57721   0.42981   0.86178   1.000
    O66     O    0.62008   0.58880   0.87442   1.000
    C169    C    0.55402   0.43265   0.86942   1.000
    C170    C    0.54544   0.46110   0.87206   1.000
    C171    C    0.52015   0.50067   0.87438   1.000
    C172    C    0.54682   0.50777   0.87414   1.000
    C173    C    0.55395   0.53455   0.87441   1.000
    C174    C    0.55944   0.48134   0.87070   1.000
    H64     H    0.57780   0.47990   0.86920   1.000
    S65     S    0.51052   0.46796   0.87334   1.000
    C175    C    0.52214   0.47177   0.87411   1.000
    H65     H    0.50700   0.46130   0.87550   1.000
    S66     S    0.57156   0.48539   0.87304   1.000
    C176    C    0.57717   0.55165   0.87367   1.000
    H66     H    0.59390   0.54380   0.87430   1.000
    S67     S    0.08698   0.04184   0.87371   1.000
    O67     O    0.03738   0.91566   0.87491   1.000
    O68     O    0.07721   0.92981   0.86178   1.000
    O69     O    0.12008   0.08880   0.87442   1.000
    C177    C    0.05402   0.93265   0.86942   1.000
    C178    C    0.04544   0.96110   0.87206   1.000
    C179    C    0.02015   0.00067   0.87438   1.000
    C180    C    0.04682   0.00777   0.87414   1.000
    C181    C    0.05395   0.03455   0.87441   1.000
    C182    C    0.05944   0.98134   0.87070   1.000
    H67     H    0.07780   0.97990   0.86920   1.000
    S68     S    0.01052   0.96796   0.87334   1.000
    C183    C    0.02214   0.97177   0.87411   1.000
    H68     H    0.00700   0.96130   0.87550   1.000
    S69     S    0.07156   0.98539   0.87304   1.000
    C184    C    0.07717   0.05165   0.87367   1.000
    H69     H    0.09390   0.04380   0.87430   1.000
    S70     S    0.08698   0.54184   0.37371   1.000
    O70     O    0.03738   0.41566   0.37491   1.000
    O71     O    0.07721   0.42981   0.36178   1.000
    O72     O    0.12008   0.58880   0.37442   1.000
    C185    C    0.05402   0.43265   0.36942   1.000
    C186    C    0.04544   0.46110   0.37206   1.000
    C187    C    0.02015   0.50067   0.37438   1.000
    C188    C    0.04682   0.50777   0.37414   1.000
    C189    C    0.05395   0.53455   0.37441   1.000
    C190    C    0.05944   0.48134   0.37070   1.000
    H70     H    0.07780   0.47990   0.36920   1.000
    S71     S    0.01052   0.46796   0.37334   1.000
    C191    C    0.02214   0.47177   0.37411   1.000
    H71     H    0.00700   0.46130   0.37550   1.000
    S72     S    0.07156   0.48539   0.37304   1.000
    C192    C    0.07717   0.55165   0.37367   1.000
    H72     H    0.09390   0.54380   0.37430   1.000
    S73     S    0.66302   0.54184   0.37629   1.000
    O73     O    0.71262   0.41566   0.37509   1.000
    O74     O    0.67279   0.42981   0.38822   1.000
    O75     O    0.62992   0.58880   0.37558   1.000
    C193    C    0.69598   0.43265   0.38058   1.000
    C194    C    0.70456   0.46110   0.37794   1.000
    C195    C    0.72985   0.50067   0.37562   1.000
    C196    C    0.70318   0.50777   0.37586   1.000
    C197    C    0.69605   0.53455   0.37559   1.000
    C198    C    0.69056   0.48134   0.37930   1.000
    H73     H    0.67220   0.47990   0.38080   1.000
    S74     S    0.73948   0.46796   0.37666   1.000
    C199    C    0.72786   0.47177   0.37589   1.000
    H74     H    0.74300   0.46130   0.37450   1.000
    S75     S    0.67844   0.48539   0.37696   1.000
    C200    C    0.67283   0.55165   0.37633   1.000
    H75     H    0.65610   0.54380   0.37570   1.000
    S76     S    0.66302   0.04184   0.87629   1.000
    O76     O    0.71262   0.91566   0.87509   1.000
    O77     O    0.67279   0.92981   0.88822   1.000
    O78     O    0.62992   0.08880   0.87558   1.000
    C201    C    0.69598   0.93265   0.88058   1.000
    C202    C    0.70456   0.96110   0.87794   1.000
    C203    C    0.72985   0.00067   0.87562   1.000
    C204    C    0.70318   0.00777   0.87586   1.000
    C205    C    0.69605   0.03455   0.87559   1.000
    C206    C    0.69056   0.98134   0.87930   1.000
    H76     H    0.67220   0.97990   0.88080   1.000
    S77     S    0.73948   0.96796   0.87666   1.000
    C207    C    0.72786   0.97177   0.87589   1.000
    H77     H    0.74300   0.96130   0.87450   1.000
    S78     S    0.67844   0.98539   0.87696   1.000
    C208    C    0.67283   0.05165   0.87633   1.000
    H78     H    0.65610   0.04380   0.87570   1.000
    S79     S    0.16302   0.54184   0.87629   1.000
    O79     O    0.21262   0.41566   0.87509   1.000
    O80     O    0.17279   0.42981   0.88822   1.000
    O81     O    0.12992   0.58880   0.87558   1.000
    C209    C    0.19598   0.43265   0.88058   1.000
    C210    C    0.20456   0.46110   0.87794   1.000
    C211    C    0.22985   0.50067   0.87562   1.000
    C212    C    0.20318   0.50777   0.87586   1.000
    C213    C    0.19605   0.53455   0.87559   1.000
    C214    C    0.19056   0.48134   0.87930   1.000
    H79     H    0.17220   0.47990   0.88080   1.000
    S80     S    0.23948   0.46796   0.87666   1.000
    C215    C    0.22786   0.47177   0.87589   1.000
    H80     H    0.24300   0.46130   0.87450   1.000
    S81     S    0.17844   0.48539   0.87696   1.000
    C216    C    0.17283   0.55165   0.87633   1.000
    H81     H    0.15610   0.54380   0.87570   1.000
    S82     S    0.16302   0.04184   0.37629   1.000
    O82     O    0.21262   0.91566   0.37509   1.000
    O83     O    0.17279   0.92981   0.38822   1.000
    O84     O    0.12992   0.08880   0.37558   1.000
    C217    C    0.19598   0.93265   0.38058   1.000
    C218    C    0.20456   0.96110   0.37794   1.000
    C219    C    0.22985   0.00067   0.37562   1.000
    C220    C    0.20318   0.00777   0.37586   1.000
    C221    C    0.19605   0.03455   0.37559   1.000
    C222    C    0.19056   0.98134   0.37930   1.000
    H82     H    0.17220   0.97990   0.38080   1.000
    S83     S    0.23948   0.96796   0.37666   1.000
    C223    C    0.22786   0.97177   0.37589   1.000
    H83     H    0.24300   0.96130   0.37450   1.000
    S84     S    0.17844   0.98539   0.37696   1.000
    C224    C    0.17283   0.05165   0.37633   1.000
    H84     H    0.15610   0.04380   0.37570   1.000
    S85     S    0.16302   0.20816   0.87371   1.000
    O85     O    0.21262   0.33434   0.87491   1.000
    O86     O    0.17279   0.32019   0.86178   1.000
    O87     O    0.12992   0.16120   0.87442   1.000
    C225    C    0.19598   0.31735   0.86942   1.000
    C226    C    0.20456   0.28890   0.87206   1.000
    C227    C    0.22985   0.24933   0.87438   1.000
    C228    C    0.20318   0.24223   0.87414   1.000
    C229    C    0.19605   0.21545   0.87441   1.000
    C230    C    0.19056   0.26866   0.87070   1.000
    H85     H    0.17220   0.27010   0.86920   1.000
    S86     S    0.23948   0.28204   0.87334   1.000
    C231    C    0.22786   0.27823   0.87411   1.000
    H86     H    0.24300   0.28870   0.87550   1.000
    S87     S    0.17844   0.26461   0.87304   1.000
    C232    C    0.17283   0.19835   0.87367   1.000
    H87     H    0.15610   0.20620   0.87430   1.000
    S88     S    0.16302   0.70816   0.37371   1.000
    O88     O    0.21262   0.83434   0.37491   1.000
    O89     O    0.17279   0.82019   0.36178   1.000
    O90     O    0.12992   0.66120   0.37442   1.000
    C233    C    0.19598   0.81735   0.36942   1.000
    C234    C    0.20456   0.78890   0.37206   1.000
    C235    C    0.22985   0.74933   0.37438   1.000
    C236    C    0.20318   0.74223   0.37414   1.000
    C237    C    0.19605   0.71545   0.37441   1.000
    C238    C    0.19056   0.76866   0.37070   1.000
    H88     H    0.17220   0.77010   0.36920   1.000
    S89     S    0.23948   0.78204   0.37334   1.000
    C239    C    0.22786   0.77823   0.37411   1.000
    H89     H    0.24300   0.78870   0.37550   1.000
    S90     S    0.17844   0.76461   0.37304   1.000
    C240    C    0.17283   0.69835   0.37367   1.000
    H90     H    0.15610   0.70620   0.37430   1.000
    S91     S    0.66302   0.20816   0.37371   1.000
    O91     O    0.71262   0.33434   0.37491   1.000
    O92     O    0.67279   0.32019   0.36178   1.000
    O93     O    0.62992   0.16120   0.37442   1.000
    C241    C    0.69598   0.31735   0.36942   1.000
    C242    C    0.70456   0.28890   0.37206   1.000
    C243    C    0.72985   0.24933   0.37438   1.000
    C244    C    0.70318   0.24223   0.37414   1.000
    C245    C    0.69605   0.21545   0.37441   1.000
    C246    C    0.69056   0.26866   0.37070   1.000
    H91     H    0.67220   0.27010   0.36920   1.000
    S92     S    0.73948   0.28204   0.37334   1.000
    C247    C    0.72786   0.27823   0.37411   1.000
    H92     H    0.74300   0.28870   0.37550   1.000
    S93     S    0.67844   0.26461   0.37304   1.000
    C248    C    0.67283   0.19835   0.37367   1.000
    H93     H    0.65610   0.20620   0.37430   1.000
    S94     S    0.66302   0.70816   0.87371   1.000
    O94     O    0.71262   0.83434   0.87491   1.000
    O95     O    0.67279   0.82019   0.86178   1.000
    O96     O    0.62992   0.66120   0.87442   1.000
    C249    C    0.69598   0.81735   0.86942   1.000
    C250    C    0.70456   0.78890   0.87206   1.000
    C251    C    0.72985   0.74933   0.87438   1.000
    C252    C    0.70318   0.74223   0.87414   1.000
    C253    C    0.69605   0.71545   0.87441   1.000
    C254    C    0.69056   0.76866   0.87070   1.000
    H94     H    0.67220   0.77010   0.86920   1.000
    S95     S    0.73948   0.78204   0.87334   1.000
    C255    C    0.72786   0.77823   0.87411   1.000
    H95     H    0.74300   0.78870   0.87550   1.000
    S96     S    0.67844   0.76461   0.87304   1.000
    C256    C    0.67283   0.69835   0.87367   1.000
    H96     H    0.65610   0.70620   0.87430   1.000
    S97     S    0.87629   0.08698   0.70816   1.000
    O97     O    0.87509   0.03738   0.83434   1.000
    O98     O    0.88822   0.07721   0.82019   1.000
    O99     O    0.87558   0.12008   0.66120   1.000
    C257    C    0.88058   0.05402   0.81735   1.000
    C258    C    0.87794   0.04544   0.78890   1.000
    C259    C    0.87562   0.02015   0.74933   1.000
    C260    C    0.87586   0.04682   0.74223   1.000
    C261    C    0.87559   0.05395   0.71545   1.000
    C262    C    0.87930   0.05944   0.76866   1.000
    H97     H    0.88080   0.07780   0.77010   1.000
    S98     S    0.87666   0.01052   0.78204   1.000
    C263    C    0.87589   0.02214   0.77823   1.000
    H98     H    0.87450   0.00700   0.78870   1.000
    S99     S    0.87696   0.07156   0.76461   1.000
    C264    C    0.87633   0.07717   0.69835   1.000
    H99     H    0.87570   0.09390   0.70620   1.000
    S100    S    0.87629   0.58698   0.20816   1.000
    O100    O    0.87509   0.53738   0.33434   1.000
    O101    O    0.88822   0.57721   0.32019   1.000
    O102    O    0.87558   0.62008   0.16120   1.000
    C265    C    0.88058   0.55402   0.31735   1.000
    C266    C    0.87794   0.54544   0.28890   1.000
    C267    C    0.87562   0.52015   0.24933   1.000
    C268    C    0.87586   0.54682   0.24223   1.000
    C269    C    0.87559   0.55395   0.21545   1.000
    C270    C    0.87930   0.55944   0.26866   1.000
    H100    H    0.88080   0.57780   0.27010   1.000
    S101    S    0.87666   0.51052   0.28204   1.000
    C271    C    0.87589   0.52214   0.27823   1.000
    H101    H    0.87450   0.50700   0.28870   1.000
    S102    S    0.87696   0.57156   0.26461   1.000
    C272    C    0.87633   0.57717   0.19835   1.000
    H102    H    0.87570   0.59390   0.20620   1.000
    S103    S    0.37629   0.08698   0.20816   1.000
    O103    O    0.37509   0.03738   0.33434   1.000
    O104    O    0.38822   0.07721   0.32019   1.000
    O105    O    0.37558   0.12008   0.16120   1.000
    C273    C    0.38058   0.05402   0.31735   1.000
    C274    C    0.37794   0.04544   0.28890   1.000
    C275    C    0.37562   0.02015   0.24933   1.000
    C276    C    0.37586   0.04682   0.24223   1.000
    C277    C    0.37559   0.05395   0.21545   1.000
    C278    C    0.37930   0.05944   0.26866   1.000
    H103    H    0.38080   0.07780   0.27010   1.000
    S104    S    0.37666   0.01052   0.28204   1.000
    C279    C    0.37589   0.02214   0.27823   1.000
    H104    H    0.37450   0.00700   0.28870   1.000
    S105    S    0.37696   0.07156   0.26461   1.000
    C280    C    0.37633   0.07717   0.19835   1.000
    H105    H    0.37570   0.09390   0.20620   1.000
    S106    S    0.37629   0.58698   0.70816   1.000
    O106    O    0.37509   0.53738   0.83434   1.000
    O107    O    0.38822   0.57721   0.82019   1.000
    O108    O    0.37558   0.62008   0.66120   1.000
    C281    C    0.38058   0.55402   0.81735   1.000
    C282    C    0.37794   0.54544   0.78890   1.000
    C283    C    0.37562   0.52015   0.74933   1.000
    C284    C    0.37586   0.54682   0.74223   1.000
    C285    C    0.37559   0.55395   0.71545   1.000
    C286    C    0.37930   0.55944   0.76866   1.000
    H106    H    0.38080   0.57780   0.77010   1.000
    S107    S    0.37666   0.51052   0.78204   1.000
    C287    C    0.37589   0.52214   0.77823   1.000
    H107    H    0.37450   0.50700   0.78870   1.000
    S108    S    0.37696   0.57156   0.76461   1.000
    C288    C    0.37633   0.57717   0.69835   1.000
    H108    H    0.37570   0.59390   0.70620   1.000
    S109    S    0.37371   0.58698   0.04184   1.000
    O109    O    0.37491   0.53738   0.91566   1.000
    O110    O    0.36178   0.57721   0.92981   1.000
    O111    O    0.37442   0.62008   0.08880   1.000
    C289    C    0.36942   0.55402   0.93265   1.000
    C290    C    0.37206   0.54544   0.96110   1.000
    C291    C    0.37438   0.52015   0.00067   1.000
    C292    C    0.37414   0.54682   0.00777   1.000
    C293    C    0.37441   0.55395   0.03455   1.000
    C294    C    0.37070   0.55944   0.98134   1.000
    H109    H    0.36920   0.57780   0.97990   1.000
    S110    S    0.37334   0.51052   0.96796   1.000
    C295    C    0.37411   0.52214   0.97177   1.000
    H110    H    0.37550   0.50700   0.96130   1.000
    S111    S    0.37304   0.57156   0.98539   1.000
    C296    C    0.37367   0.57717   0.05165   1.000
    H111    H    0.37430   0.59390   0.04380   1.000
    S112    S    0.37371   0.08698   0.54184   1.000
    O112    O    0.37491   0.03738   0.41566   1.000
    O113    O    0.36178   0.07721   0.42981   1.000
    O114    O    0.37442   0.12008   0.58880   1.000
    C297    C    0.36942   0.05402   0.43265   1.000
    C298    C    0.37206   0.04544   0.46110   1.000
    C299    C    0.37438   0.02015   0.50067   1.000
    C300    C    0.37414   0.04682   0.50777   1.000
    C301    C    0.37441   0.05395   0.53455   1.000
    C302    C    0.37070   0.05944   0.48134   1.000
    H112    H    0.36920   0.07780   0.47990   1.000
    S113    S    0.37334   0.01052   0.46796   1.000
    C303    C    0.37411   0.02214   0.47177   1.000
    H113    H    0.37550   0.00700   0.46130   1.000
    S114    S    0.37304   0.07156   0.48539   1.000
    C304    C    0.37367   0.07717   0.55165   1.000
    H114    H    0.37430   0.09390   0.54380   1.000
    S115    S    0.87371   0.58698   0.54184   1.000
    O115    O    0.87491   0.53738   0.41566   1.000
    O116    O    0.86178   0.57721   0.42981   1.000
    O117    O    0.87442   0.62008   0.58880   1.000
    C305    C    0.86942   0.55402   0.43265   1.000
    C306    C    0.87206   0.54544   0.46110   1.000
    C307    C    0.87438   0.52015   0.50067   1.000
    C308    C    0.87414   0.54682   0.50777   1.000
    C309    C    0.87441   0.55395   0.53455   1.000
    C310    C    0.87070   0.55944   0.48134   1.000
    H115    H    0.86920   0.57780   0.47990   1.000
    S116    S    0.87334   0.51052   0.46796   1.000
    C311    C    0.87411   0.52214   0.47177   1.000
    H116    H    0.87550   0.50700   0.46130   1.000
    S117    S    0.87304   0.57156   0.48539   1.000
    C312    C    0.87367   0.57717   0.55165   1.000
    H117    H    0.87430   0.59390   0.54380   1.000
    S118    S    0.87371   0.08698   0.04184   1.000
    O118    O    0.87491   0.03738   0.91566   1.000
    O119    O    0.86178   0.07721   0.92981   1.000
    O120    O    0.87442   0.12008   0.08880   1.000
    C313    C    0.86942   0.05402   0.93265   1.000
    C314    C    0.87206   0.04544   0.96110   1.000
    C315    C    0.87438   0.02015   0.00067   1.000
    C316    C    0.87414   0.04682   0.00777   1.000
    C317    C    0.87441   0.05395   0.03455   1.000
    C318    C    0.87070   0.05944   0.98134   1.000
    H118    H    0.86920   0.07780   0.97990   1.000
    S119    S    0.87334   0.01052   0.96796   1.000
    C319    C    0.87411   0.02214   0.97177   1.000
    H119    H    0.87550   0.00700   0.96130   1.000
    S120    S    0.87304   0.07156   0.98539   1.000
    C320    C    0.87367   0.07717   0.05165   1.000
    H120    H    0.87430   0.09390   0.04380   1.000
    S121    S    0.37629   0.66302   0.54184   1.000
    O121    O    0.37509   0.71262   0.41566   1.000
    O122    O    0.38822   0.67279   0.42981   1.000
    O123    O    0.37558   0.62992   0.58880   1.000
    C321    C    0.38058   0.69598   0.43265   1.000
    C322    C    0.37794   0.70456   0.46110   1.000
    C323    C    0.37562   0.72985   0.50067   1.000
    C324    C    0.37586   0.70318   0.50777   1.000
    C325    C    0.37559   0.69605   0.53455   1.000
    C326    C    0.37930   0.69056   0.48134   1.000
    H121    H    0.38080   0.67220   0.47990   1.000
    S122    S    0.37666   0.73948   0.46796   1.000
    C327    C    0.37589   0.72786   0.47177   1.000
    H122    H    0.37450   0.74300   0.46130   1.000
    S123    S    0.37696   0.67844   0.48539   1.000
    C328    C    0.37633   0.67283   0.55165   1.000
    H123    H    0.37570   0.65610   0.54380   1.000
    S124    S    0.37629   0.16302   0.04184   1.000
    O124    O    0.37509   0.21262   0.91566   1.000
    O125    O    0.38822   0.17279   0.92981   1.000
    O126    O    0.37558   0.12992   0.08880   1.000
    C329    C    0.38058   0.19598   0.93265   1.000
    C330    C    0.37794   0.20456   0.96110   1.000
    C331    C    0.37562   0.22985   0.00067   1.000
    C332    C    0.37586   0.20318   0.00777   1.000
    C333    C    0.37559   0.19605   0.03455   1.000
    C334    C    0.37930   0.19056   0.98134   1.000
    H124    H    0.38080   0.17220   0.97990   1.000
    S125    S    0.37666   0.23948   0.96796   1.000
    C335    C    0.37589   0.22786   0.97177   1.000
    H125    H    0.37450   0.24300   0.96130   1.000
    S126    S    0.37696   0.17844   0.98539   1.000
    C336    C    0.37633   0.17283   0.05165   1.000
    H126    H    0.37570   0.15610   0.04380   1.000
    S127    S    0.87629   0.66302   0.04184   1.000
    O127    O    0.87509   0.71262   0.91566   1.000
    O128    O    0.88822   0.67279   0.92981   1.000
    O129    O    0.87558   0.62992   0.08880   1.000
    C337    C    0.88058   0.69598   0.93265   1.000
    C338    C    0.87794   0.70456   0.96110   1.000
    C339    C    0.87562   0.72985   0.00067   1.000
    C340    C    0.87586   0.70318   0.00777   1.000
    C341    C    0.87559   0.69605   0.03455   1.000
    C342    C    0.87930   0.69056   0.98134   1.000
    H127    H    0.88080   0.67220   0.97990   1.000
    S128    S    0.87666   0.73948   0.96796   1.000
    C343    C    0.87589   0.72786   0.97177   1.000
    H128    H    0.87450   0.74300   0.96130   1.000
    S129    S    0.87696   0.67844   0.98539   1.000
    C344    C    0.87633   0.67283   0.05165   1.000
    H129    H    0.87570   0.65610   0.04380   1.000
    S130    S    0.87629   0.16302   0.54184   1.000
    O130    O    0.87509   0.21262   0.41566   1.000
    O131    O    0.88822   0.17279   0.42981   1.000
    O132    O    0.87558   0.12992   0.58880   1.000
    C345    C    0.88058   0.19598   0.43265   1.000
    C346    C    0.87794   0.20456   0.46110   1.000
    C347    C    0.87562   0.22985   0.50067   1.000
    C348    C    0.87586   0.20318   0.50777   1.000
    C349    C    0.87559   0.19605   0.53455   1.000
    C350    C    0.87930   0.19056   0.48134   1.000
    H130    H    0.88080   0.17220   0.47990   1.000
    S131    S    0.87666   0.23948   0.46796   1.000
    C351    C    0.87589   0.22786   0.47177   1.000
    H131    H    0.87450   0.24300   0.46130   1.000
    S132    S    0.87696   0.17844   0.48539   1.000
    C352    C    0.87633   0.17283   0.55165   1.000
    H132    H    0.87570   0.15610   0.54380   1.000
    S133    S    0.87371   0.16302   0.20816   1.000
    O133    O    0.87491   0.21262   0.33434   1.000
    O134    O    0.86178   0.17279   0.32019   1.000
    O135    O    0.87442   0.12992   0.16120   1.000
    C353    C    0.86942   0.19598   0.31735   1.000
    C354    C    0.87206   0.20456   0.28890   1.000
    C355    C    0.87438   0.22985   0.24933   1.000
    C356    C    0.87414   0.20318   0.24223   1.000
    C357    C    0.87441   0.19605   0.21545   1.000
    C358    C    0.87070   0.19056   0.26866   1.000
    H133    H    0.86920   0.17220   0.27010   1.000
    S134    S    0.87334   0.23948   0.28204   1.000
    C359    C    0.87411   0.22786   0.27823   1.000
    H134    H    0.87550   0.24300   0.28870   1.000
    S135    S    0.87304   0.17844   0.26461   1.000
    C360    C    0.87367   0.17283   0.19835   1.000
    H135    H    0.87430   0.15610   0.20620   1.000
    S136    S    0.87371   0.66302   0.70816   1.000
    O136    O    0.87491   0.71262   0.83434   1.000
    O137    O    0.86178   0.67279   0.82019   1.000
    O138    O    0.87442   0.62992   0.66120   1.000
    C361    C    0.86942   0.69598   0.81735   1.000
    C362    C    0.87206   0.70456   0.78890   1.000
    C363    C    0.87438   0.72985   0.74933   1.000
    C364    C    0.87414   0.70318   0.74223   1.000
    C365    C    0.87441   0.69605   0.71545   1.000
    C366    C    0.87070   0.69056   0.76866   1.000
    H136    H    0.86920   0.67220   0.77010   1.000
    S137    S    0.87334   0.73948   0.78204   1.000
    C367    C    0.87411   0.72786   0.77823   1.000
    H137    H    0.87550   0.74300   0.78870   1.000
    S138    S    0.87304   0.67844   0.76461   1.000
    C368    C    0.87367   0.67283   0.69835   1.000
    H138    H    0.87430   0.65610   0.70620   1.000
    S139    S    0.37371   0.16302   0.70816   1.000
    O139    O    0.37491   0.21262   0.83434   1.000
    O140    O    0.36178   0.17279   0.82019   1.000
    O141    O    0.37442   0.12992   0.66120   1.000
    C369    C    0.36942   0.19598   0.81735   1.000
    C370    C    0.37206   0.20456   0.78890   1.000
    C371    C    0.37438   0.22985   0.74933   1.000
    C372    C    0.37414   0.20318   0.74223   1.000
    C373    C    0.37441   0.19605   0.71545   1.000
    C374    C    0.37070   0.19056   0.76866   1.000
    H139    H    0.36920   0.17220   0.77010   1.000
    S140    S    0.37334   0.23948   0.78204   1.000
    C375    C    0.37411   0.22786   0.77823   1.000
    H140    H    0.37550   0.24300   0.78870   1.000
    S141    S    0.37304   0.17844   0.76461   1.000
    C376    C    0.37367   0.17283   0.69835   1.000
    H141    H    0.37430   0.15610   0.70620   1.000
    S142    S    0.37371   0.66302   0.20816   1.000
    O142    O    0.37491   0.71262   0.33434   1.000
    O143    O    0.36178   0.67279   0.32019   1.000
    O144    O    0.37442   0.62992   0.16120   1.000
    C377    C    0.36942   0.69598   0.31735   1.000
    C378    C    0.37206   0.70456   0.28890   1.000
    C379    C    0.37438   0.72985   0.24933   1.000
    C380    C    0.37414   0.70318   0.24223   1.000
    C381    C    0.37441   0.69605   0.21545   1.000
    C382    C    0.37070   0.69056   0.26866   1.000
    H142    H    0.36920   0.67220   0.27010   1.000
    S143    S    0.37334   0.73948   0.28204   1.000
    C383    C    0.37411   0.72786   0.27823   1.000
    H143    H    0.37550   0.74300   0.28870   1.000
    S144    S    0.37304   0.67844   0.26461   1.000
    C384    C    0.37367   0.67283   0.19835   1.000
    H144    H    0.37430   0.65610   0.20620   1.000
    S145    S    0.62629   0.95816   0.41302   1.000
    O145    O    0.62509   0.08434   0.46262   1.000
    O146    O    0.63822   0.07019   0.42279   1.000
    O147    O    0.62558   0.91120   0.37992   1.000
    C385    C    0.63058   0.06735   0.44598   1.000
    C386    C    0.62794   0.03890   0.45456   1.000
    C387    C    0.62562   0.99933   0.47985   1.000
    C388    C    0.62586   0.99223   0.45318   1.000
    C389    C    0.62559   0.96545   0.44605   1.000
    C390    C    0.62930   0.01866   0.44056   1.000
    H145    H    0.63080   0.02010   0.42220   1.000
    S146    S    0.62666   0.03204   0.48948   1.000
    C391    C    0.62589   0.02823   0.47786   1.000
    H146    H    0.62450   0.03870   0.49300   1.000
    S147    S    0.62696   0.01461   0.42844   1.000
    C392    C    0.62633   0.94835   0.42283   1.000
    H147    H    0.62570   0.95620   0.40610   1.000
    S148    S    0.62629   0.45816   0.91302   1.000
    O148    O    0.62509   0.58434   0.96262   1.000
    O149    O    0.63822   0.57019   0.92279   1.000
    O150    O    0.62558   0.41120   0.87992   1.000
    C393    C    0.63058   0.56735   0.94598   1.000
    C394    C    0.62794   0.53890   0.95456   1.000
    C395    C    0.62562   0.49933   0.97985   1.000
    C396    C    0.62586   0.49223   0.95318   1.000
    C397    C    0.62559   0.46545   0.94605   1.000
    C398    C    0.62930   0.51866   0.94056   1.000
    H148    H    0.63080   0.52010   0.92220   1.000
    S149    S    0.62666   0.53204   0.98948   1.000
    C399    C    0.62589   0.52823   0.97786   1.000
    H149    H    0.62450   0.53870   0.99300   1.000
    S150    S    0.62696   0.51461   0.92844   1.000
    C400    C    0.62633   0.44835   0.92283   1.000
    H150    H    0.62570   0.45620   0.90610   1.000
    S151    S    0.12629   0.95816   0.91302   1.000
    O151    O    0.12509   0.08434   0.96262   1.000
    O152    O    0.13822   0.07019   0.92279   1.000
    O153    O    0.12558   0.91120   0.87992   1.000
    C401    C    0.13058   0.06735   0.94598   1.000
    C402    C    0.12794   0.03890   0.95456   1.000
    C403    C    0.12562   0.99933   0.97985   1.000
    C404    C    0.12586   0.99223   0.95318   1.000
    C405    C    0.12559   0.96545   0.94605   1.000
    C406    C    0.12930   0.01866   0.94056   1.000
    H151    H    0.13080   0.02010   0.92220   1.000
    S152    S    0.12666   0.03204   0.98948   1.000
    C407    C    0.12589   0.02823   0.97786   1.000
    H152    H    0.12450   0.03870   0.99300   1.000
    S153    S    0.12696   0.01461   0.92844   1.000
    C408    C    0.12633   0.94835   0.92283   1.000
    H153    H    0.12570   0.95620   0.90610   1.000
    S154    S    0.12629   0.45816   0.41302   1.000
    O154    O    0.12509   0.58434   0.46262   1.000
    O155    O    0.13822   0.57019   0.42279   1.000
    O156    O    0.12558   0.41120   0.37992   1.000
    C409    C    0.13058   0.56735   0.44598   1.000
    C410    C    0.12794   0.53890   0.45456   1.000
    C411    C    0.12562   0.49933   0.47985   1.000
    C412    C    0.12586   0.49223   0.45318   1.000
    C413    C    0.12559   0.46545   0.44605   1.000
    C414    C    0.12930   0.51866   0.44056   1.000
    H154    H    0.13080   0.52010   0.42220   1.000
    S155    S    0.12666   0.53204   0.48948   1.000
    C415    C    0.12589   0.52823   0.47786   1.000
    H155    H    0.12450   0.53870   0.49300   1.000
    S156    S    0.12696   0.51461   0.42844   1.000
    C416    C    0.12633   0.44835   0.42283   1.000
    H156    H    0.12570   0.45620   0.40610   1.000
    S157    S    0.12371   0.29184   0.91302   1.000
    O157    O    0.12491   0.16566   0.96262   1.000
    O158    O    0.11178   0.17981   0.92279   1.000
    O159    O    0.12442   0.33880   0.87992   1.000
    C417    C    0.11942   0.18265   0.94598   1.000
    C418    C    0.12206   0.21110   0.95456   1.000
    C419    C    0.12438   0.25067   0.97985   1.000
    C420    C    0.12414   0.25777   0.95318   1.000
    C421    C    0.12441   0.28455   0.94605   1.000
    C422    C    0.12070   0.23134   0.94056   1.000
    H157    H    0.11920   0.22990   0.92220   1.000
    S158    S    0.12334   0.21796   0.98948   1.000
    C423    C    0.12411   0.22177   0.97786   1.000
    H158    H    0.12550   0.21130   0.99300   1.000
    S159    S    0.12304   0.23539   0.92844   1.000
    C424    C    0.12367   0.30165   0.92283   1.000
    H159    H    0.12430   0.29380   0.90610   1.000
    S160    S    0.12371   0.79184   0.41302   1.000
    O160    O    0.12491   0.66566   0.46262   1.000
    O161    O    0.11178   0.67981   0.42279   1.000
    O162    O    0.12442   0.83880   0.37992   1.000
    C425    C    0.11942   0.68265   0.44598   1.000
    C426    C    0.12206   0.71110   0.45456   1.000
    C427    C    0.12438   0.75067   0.47985   1.000
    C428    C    0.12414   0.75777   0.45318   1.000
    C429    C    0.12441   0.78455   0.44605   1.000
    C430    C    0.12070   0.73134   0.44056   1.000
    H160    H    0.11920   0.72990   0.42220   1.000
    S161    S    0.12334   0.71796   0.48948   1.000
    C431    C    0.12411   0.72177   0.47786   1.000
    H161    H    0.12550   0.71130   0.49300   1.000
    S162    S    0.12304   0.73539   0.42844   1.000
    C432    C    0.12367   0.80165   0.42283   1.000
    H162    H    0.12430   0.79380   0.40610   1.000
    S163    S    0.62371   0.29184   0.41302   1.000
    O163    O    0.62491   0.16566   0.46262   1.000
    O164    O    0.61178   0.17981   0.42279   1.000
    O165    O    0.62442   0.33880   0.37992   1.000
    C433    C    0.61942   0.18265   0.44598   1.000
    C434    C    0.62206   0.21110   0.45456   1.000
    C435    C    0.62438   0.25067   0.47985   1.000
    C436    C    0.62414   0.25777   0.45318   1.000
    C437    C    0.62441   0.28455   0.44605   1.000
    C438    C    0.62070   0.23134   0.44056   1.000
    H163    H    0.61920   0.22990   0.42220   1.000
    S164    S    0.62334   0.21796   0.48948   1.000
    C439    C    0.62411   0.22177   0.47786   1.000
    H164    H    0.62550   0.21130   0.49300   1.000
    S165    S    0.62304   0.23539   0.42844   1.000
    C440    C    0.62367   0.30165   0.42283   1.000
    H165    H    0.62430   0.29380   0.40610   1.000
    S166    S    0.62371   0.79184   0.91302   1.000
    O166    O    0.62491   0.66566   0.96262   1.000
    O167    O    0.61178   0.67981   0.92279   1.000
    O168    O    0.62442   0.83880   0.87992   1.000
    C441    C    0.61942   0.68265   0.94598   1.000
    C442    C    0.62206   0.71110   0.95456   1.000
    C443    C    0.62438   0.75067   0.97985   1.000
    C444    C    0.62414   0.75777   0.95318   1.000
    C445    C    0.62441   0.78455   0.94605   1.000
    C446    C    0.62070   0.73134   0.94056   1.000
    H166    H    0.61920   0.72990   0.92220   1.000
    S167    S    0.62334   0.71796   0.98948   1.000
    C447    C    0.62411   0.72177   0.97786   1.000
    H167    H    0.62550   0.71130   0.99300   1.000
    S168    S    0.62304   0.73539   0.92844   1.000
    C448    C    0.62367   0.80165   0.92283   1.000
    H168    H    0.62430   0.79380   0.90610   1.000
    S169    S    0.12629   0.79184   0.83698   1.000
    O169    O    0.12509   0.66566   0.78738   1.000
    O170    O    0.13822   0.67981   0.82721   1.000
    O171    O    0.12558   0.83880   0.87008   1.000
    C449    C    0.13058   0.68265   0.80402   1.000
    C450    C    0.12794   0.71110   0.79544   1.000
    C451    C    0.12562   0.75067   0.77015   1.000
    C452    C    0.12586   0.75777   0.79682   1.000
    C453    C    0.12559   0.78455   0.80395   1.000
    C454    C    0.12930   0.73134   0.80944   1.000
    H169    H    0.13080   0.72990   0.82780   1.000
    S170    S    0.12666   0.71796   0.76052   1.000
    C455    C    0.12589   0.72177   0.77214   1.000
    H170    H    0.12450   0.71130   0.75700   1.000
    S171    S    0.12696   0.73539   0.82156   1.000
    C456    C    0.12633   0.80165   0.82717   1.000
    H171    H    0.12570   0.79380   0.84390   1.000
    S172    S    0.12629   0.29184   0.33698   1.000
    O172    O    0.12509   0.16566   0.28738   1.000
    O173    O    0.13822   0.17981   0.32721   1.000
    O174    O    0.12558   0.33880   0.37008   1.000
    C457    C    0.13058   0.18265   0.30402   1.000
    C458    C    0.12794   0.21110   0.29544   1.000
    C459    C    0.12562   0.25067   0.27015   1.000
    C460    C    0.12586   0.25777   0.29682   1.000
    C461    C    0.12559   0.28455   0.30395   1.000
    C462    C    0.12930   0.23134   0.30944   1.000
    H172    H    0.13080   0.22990   0.32780   1.000
    S173    S    0.12666   0.21796   0.26052   1.000
    C463    C    0.12589   0.22177   0.27214   1.000
    H173    H    0.12450   0.21130   0.25700   1.000
    S174    S    0.12696   0.23539   0.32156   1.000
    C464    C    0.12633   0.30165   0.32717   1.000
    H174    H    0.12570   0.29380   0.34390   1.000
    S175    S    0.62629   0.79184   0.33698   1.000
    O175    O    0.62509   0.66566   0.28738   1.000
    O176    O    0.63822   0.67981   0.32721   1.000
    O177    O    0.62558   0.83880   0.37008   1.000
    C465    C    0.63058   0.68265   0.30402   1.000
    C466    C    0.62794   0.71110   0.29544   1.000
    C467    C    0.62562   0.75067   0.27015   1.000
    C468    C    0.62586   0.75777   0.29682   1.000
    C469    C    0.62559   0.78455   0.30395   1.000
    C470    C    0.62930   0.73134   0.30944   1.000
    H175    H    0.63080   0.72990   0.32780   1.000
    S176    S    0.62666   0.71796   0.26052   1.000
    C471    C    0.62589   0.72177   0.27214   1.000
    H176    H    0.62450   0.71130   0.25700   1.000
    S177    S    0.62696   0.73539   0.32156   1.000
    C472    C    0.62633   0.80165   0.32717   1.000
    H177    H    0.62570   0.79380   0.34390   1.000
    S178    S    0.62629   0.29184   0.83698   1.000
    O178    O    0.62509   0.16566   0.78738   1.000
    O179    O    0.63822   0.17981   0.82721   1.000
    O180    O    0.62558   0.33880   0.87008   1.000
    C473    C    0.63058   0.18265   0.80402   1.000
    C474    C    0.62794   0.21110   0.79544   1.000
    C475    C    0.62562   0.25067   0.77015   1.000
    C476    C    0.62586   0.25777   0.79682   1.000
    C477    C    0.62559   0.28455   0.80395   1.000
    C478    C    0.62930   0.23134   0.80944   1.000
    H178    H    0.63080   0.22990   0.82780   1.000
    S179    S    0.62666   0.21796   0.76052   1.000
    C479    C    0.62589   0.22177   0.77214   1.000
    H179    H    0.62450   0.21130   0.75700   1.000
    S180    S    0.62696   0.23539   0.82156   1.000
    C480    C    0.62633   0.30165   0.82717   1.000
    H180    H    0.62570   0.29380   0.84390   1.000
    S181    S    0.62371   0.45816   0.33698   1.000
    O181    O    0.62491   0.58434   0.28738   1.000
    O182    O    0.61178   0.57019   0.32721   1.000
    O183    O    0.62442   0.41120   0.37008   1.000
    C481    C    0.61942   0.56735   0.30402   1.000
    C482    C    0.62206   0.53890   0.29544   1.000
    C483    C    0.62438   0.49933   0.27015   1.000
    C484    C    0.62414   0.49223   0.29682   1.000
    C485    C    0.62441   0.46545   0.30395   1.000
    C486    C    0.62070   0.51866   0.30944   1.000
    H181    H    0.61920   0.52010   0.32780   1.000
    S182    S    0.62334   0.53204   0.26052   1.000
    C487    C    0.62411   0.52823   0.27214   1.000
    H182    H    0.62550   0.53870   0.25700   1.000
    S183    S    0.62304   0.51461   0.32156   1.000
    C488    C    0.62367   0.44835   0.32717   1.000
    H183    H    0.62430   0.45620   0.34390   1.000
    S184    S    0.62371   0.95816   0.83698   1.000
    O184    O    0.62491   0.08434   0.78738   1.000
    O185    O    0.61178   0.07019   0.82721   1.000
    O186    O    0.62442   0.91120   0.87008   1.000
    C489    C    0.61942   0.06735   0.80402   1.000
    C490    C    0.62206   0.03890   0.79544   1.000
    C491    C    0.62438   0.99933   0.77015   1.000
    C492    C    0.62414   0.99223   0.79682   1.000
    C493    C    0.62441   0.96545   0.80395   1.000
    C494    C    0.62070   0.01866   0.80944   1.000
    H184    H    0.61920   0.02010   0.82780   1.000
    S185    S    0.62334   0.03204   0.76052   1.000
    C495    C    0.62411   0.02823   0.77214   1.000
    H185    H    0.62550   0.03870   0.75700   1.000
    S186    S    0.62304   0.01461   0.82156   1.000
    C496    C    0.62367   0.94835   0.82717   1.000
    H186    H    0.62430   0.95620   0.84390   1.000
    S187    S    0.12371   0.45816   0.83698   1.000
    O187    O    0.12491   0.58434   0.78738   1.000
    O188    O    0.11178   0.57019   0.82721   1.000
    O189    O    0.12442   0.41120   0.87008   1.000
    C497    C    0.11942   0.56735   0.80402   1.000
    C498    C    0.12206   0.53890   0.79544   1.000
    C499    C    0.12438   0.49933   0.77015   1.000
    C500    C    0.12414   0.49223   0.79682   1.000
    C501    C    0.12441   0.46545   0.80395   1.000
    C502    C    0.12070   0.51866   0.80944   1.000
    H187    H    0.11920   0.52010   0.82780   1.000
    S188    S    0.12334   0.53204   0.76052   1.000
    C503    C    0.12411   0.52823   0.77214   1.000
    H188    H    0.12550   0.53870   0.75700   1.000
    S189    S    0.12304   0.51461   0.82156   1.000
    C504    C    0.12367   0.44835   0.82717   1.000
    H189    H    0.12430   0.45620   0.84390   1.000
    S190    S    0.12371   0.95816   0.33698   1.000
    O190    O    0.12491   0.08434   0.28738   1.000
    O191    O    0.11178   0.07019   0.32721   1.000
    O192    O    0.12442   0.91120   0.37008   1.000
    C505    C    0.11942   0.06735   0.30402   1.000
    C506    C    0.12206   0.03890   0.29544   1.000
    C507    C    0.12438   0.99933   0.27015   1.000
    C508    C    0.12414   0.99223   0.29682   1.000
    C509    C    0.12441   0.96545   0.30395   1.000
    C510    C    0.12070   0.01866   0.30944   1.000
    H190    H    0.11920   0.02010   0.32780   1.000
    S191    S    0.12334   0.03204   0.26052   1.000
    C511    C    0.12411   0.02823   0.27214   1.000
    H191    H    0.12550   0.03870   0.25700   1.000
    S192    S    0.12304   0.01461   0.32156   1.000
    C512    C    0.12367   0.94835   0.32717   1.000
    H192    H    0.12430   0.95620   0.34390   1.000
    S193    S    0.45816   0.33698   0.62371   1.000
    O193    O    0.58434   0.28738   0.62491   1.000
    O194    O    0.57019   0.32721   0.61178   1.000
    O195    O    0.41120   0.37008   0.62442   1.000
    C513    C    0.56735   0.30402   0.61942   1.000
    C514    C    0.53890   0.29544   0.62206   1.000
    C515    C    0.49933   0.27015   0.62438   1.000
    C516    C    0.49223   0.29682   0.62414   1.000
    C517    C    0.46545   0.30395   0.62441   1.000
    C518    C    0.51866   0.30944   0.62070   1.000
    H193    H    0.52010   0.32780   0.61920   1.000
    S194    S    0.53204   0.26052   0.62334   1.000
    C519    C    0.52823   0.27214   0.62411   1.000
    H194    H    0.53870   0.25700   0.62550   1.000
    S195    S    0.51461   0.32156   0.62304   1.000
    C520    C    0.44835   0.32717   0.62367   1.000
    H195    H    0.45620   0.34390   0.62430   1.000
    S196    S    0.45816   0.83698   0.12371   1.000
    O196    O    0.58434   0.78738   0.12491   1.000
    O197    O    0.57019   0.82721   0.11178   1.000
    O198    O    0.41120   0.87008   0.12442   1.000
    C521    C    0.56735   0.80402   0.11942   1.000
    C522    C    0.53890   0.79544   0.12206   1.000
    C523    C    0.49933   0.77015   0.12438   1.000
    C524    C    0.49223   0.79682   0.12414   1.000
    C525    C    0.46545   0.80395   0.12441   1.000
    C526    C    0.51866   0.80944   0.12070   1.000
    H196    H    0.52010   0.82780   0.11920   1.000
    S197    S    0.53204   0.76052   0.12334   1.000
    C527    C    0.52823   0.77214   0.12411   1.000
    H197    H    0.53870   0.75700   0.12550   1.000
    S198    S    0.51461   0.82156   0.12304   1.000
    C528    C    0.44835   0.82717   0.12367   1.000
    H198    H    0.45620   0.84390   0.12430   1.000
    S199    S    0.95816   0.33698   0.12371   1.000
    O199    O    0.08434   0.28738   0.12491   1.000
    O200    O    0.07019   0.32721   0.11178   1.000
    O201    O    0.91120   0.37008   0.12442   1.000
    C529    C    0.06735   0.30402   0.11942   1.000
    C530    C    0.03890   0.29544   0.12206   1.000
    C531    C    0.99933   0.27015   0.12438   1.000
    C532    C    0.99223   0.29682   0.12414   1.000
    C533    C    0.96545   0.30395   0.12441   1.000
    C534    C    0.01866   0.30944   0.12070   1.000
    H199    H    0.02010   0.32780   0.11920   1.000
    S200    S    0.03204   0.26052   0.12334   1.000
    C535    C    0.02823   0.27214   0.12411   1.000
    H200    H    0.03870   0.25700   0.12550   1.000
    S201    S    0.01461   0.32156   0.12304   1.000
    C536    C    0.94835   0.32717   0.12367   1.000
    H201    H    0.95620   0.34390   0.12430   1.000
    S202    S    0.95816   0.83698   0.62371   1.000
    O202    O    0.08434   0.78738   0.62491   1.000
    O203    O    0.07019   0.82721   0.61178   1.000
    O204    O    0.91120   0.87008   0.62442   1.000
    C537    C    0.06735   0.80402   0.61942   1.000
    C538    C    0.03890   0.79544   0.62206   1.000
    C539    C    0.99933   0.77015   0.62438   1.000
    C540    C    0.99223   0.79682   0.62414   1.000
    C541    C    0.96545   0.80395   0.62441   1.000
    C542    C    0.01866   0.80944   0.62070   1.000
    H202    H    0.02010   0.82780   0.61920   1.000
    S203    S    0.03204   0.76052   0.62334   1.000
    C543    C    0.02823   0.77214   0.62411   1.000
    H203    H    0.03870   0.75700   0.62550   1.000
    S204    S    0.01461   0.82156   0.62304   1.000
    C544    C    0.94835   0.82717   0.62367   1.000
    H204    H    0.95620   0.84390   0.62430   1.000
    S205    S    0.79184   0.83698   0.12629   1.000
    O205    O    0.66566   0.78738   0.12509   1.000
    O206    O    0.67981   0.82721   0.13822   1.000
    O207    O    0.83880   0.87008   0.12558   1.000
    C545    C    0.68265   0.80402   0.13058   1.000
    C546    C    0.71110   0.79544   0.12794   1.000
    C547    C    0.75067   0.77015   0.12562   1.000
    C548    C    0.75777   0.79682   0.12586   1.000
    C549    C    0.78455   0.80395   0.12559   1.000
    C550    C    0.73134   0.80944   0.12930   1.000
    H205    H    0.72990   0.82780   0.13080   1.000
    S206    S    0.71796   0.76052   0.12666   1.000
    C551    C    0.72177   0.77214   0.12589   1.000
    H206    H    0.71130   0.75700   0.12450   1.000
    S207    S    0.73539   0.82156   0.12696   1.000
    C552    C    0.80165   0.82717   0.12633   1.000
    H207    H    0.79380   0.84390   0.12570   1.000
    S208    S    0.79184   0.33698   0.62629   1.000
    O208    O    0.66566   0.28738   0.62509   1.000
    O209    O    0.67981   0.32721   0.63822   1.000
    O210    O    0.83880   0.37008   0.62558   1.000
    C553    C    0.68265   0.30402   0.63058   1.000
    C554    C    0.71110   0.29544   0.62794   1.000
    C555    C    0.75067   0.27015   0.62562   1.000
    C556    C    0.75777   0.29682   0.62586   1.000
    C557    C    0.78455   0.30395   0.62559   1.000
    C558    C    0.73134   0.30944   0.62930   1.000
    H208    H    0.72990   0.32780   0.63080   1.000
    S209    S    0.71796   0.26052   0.62666   1.000
    C559    C    0.72177   0.27214   0.62589   1.000
    H209    H    0.71130   0.25700   0.62450   1.000
    S210    S    0.73539   0.32156   0.62696   1.000
    C560    C    0.80165   0.32717   0.62633   1.000
    H210    H    0.79380   0.34390   0.62570   1.000
    S211    S    0.29184   0.83698   0.62629   1.000
    O211    O    0.16566   0.78738   0.62509   1.000
    O212    O    0.17981   0.82721   0.63822   1.000
    O213    O    0.33880   0.87008   0.62558   1.000
    C561    C    0.18265   0.80402   0.63058   1.000
    C562    C    0.21110   0.79544   0.62794   1.000
    C563    C    0.25067   0.77015   0.62562   1.000
    C564    C    0.25777   0.79682   0.62586   1.000
    C565    C    0.28455   0.80395   0.62559   1.000
    C566    C    0.23134   0.80944   0.62930   1.000
    H211    H    0.22990   0.82780   0.63080   1.000
    S212    S    0.21796   0.76052   0.62666   1.000
    C567    C    0.22177   0.77214   0.62589   1.000
    H212    H    0.21130   0.75700   0.62450   1.000
    S213    S    0.23539   0.82156   0.62696   1.000
    C568    C    0.30165   0.82717   0.62633   1.000
    H213    H    0.29380   0.84390   0.62570   1.000
    S214    S    0.29184   0.33698   0.12629   1.000
    O214    O    0.16566   0.28738   0.12509   1.000
    O215    O    0.17981   0.32721   0.13822   1.000
    O216    O    0.33880   0.37008   0.12558   1.000
    C569    C    0.18265   0.30402   0.13058   1.000
    C570    C    0.21110   0.29544   0.12794   1.000
    C571    C    0.25067   0.27015   0.12562   1.000
    C572    C    0.25777   0.29682   0.12586   1.000
    C573    C    0.28455   0.30395   0.12559   1.000
    C574    C    0.23134   0.30944   0.12930   1.000
    H214    H    0.22990   0.32780   0.13080   1.000
    S215    S    0.21796   0.26052   0.12666   1.000
    C575    C    0.22177   0.27214   0.12589   1.000
    H215    H    0.21130   0.25700   0.12450   1.000
    S216    S    0.23539   0.32156   0.12696   1.000
    C576    C    0.30165   0.32717   0.12633   1.000
    H216    H    0.29380   0.34390   0.12570   1.000
    S217    S    0.29184   0.91302   0.12371   1.000
    O217    O    0.16566   0.96262   0.12491   1.000
    O218    O    0.17981   0.92279   0.11178   1.000
    O219    O    0.33880   0.87992   0.12442   1.000
    C577    C    0.18265   0.94598   0.11942   1.000
    C578    C    0.21110   0.95456   0.12206   1.000
    C579    C    0.25067   0.97985   0.12438   1.000
    C580    C    0.25777   0.95318   0.12414   1.000
    C581    C    0.28455   0.94605   0.12441   1.000
    C582    C    0.23134   0.94056   0.12070   1.000
    H217    H    0.22990   0.92220   0.11920   1.000
    S218    S    0.21796   0.98948   0.12334   1.000
    C583    C    0.22177   0.97786   0.12411   1.000
    H218    H    0.21130   0.99300   0.12550   1.000
    S219    S    0.23539   0.92844   0.12304   1.000
    C584    C    0.30165   0.92283   0.12367   1.000
    H219    H    0.29380   0.90610   0.12430   1.000
    S220    S    0.29184   0.41302   0.62371   1.000
    O220    O    0.16566   0.46262   0.62491   1.000
    O221    O    0.17981   0.42279   0.61178   1.000
    O222    O    0.33880   0.37992   0.62442   1.000
    C585    C    0.18265   0.44598   0.61942   1.000
    C586    C    0.21110   0.45456   0.62206   1.000
    C587    C    0.25067   0.47985   0.62438   1.000
    C588    C    0.25777   0.45318   0.62414   1.000
    C589    C    0.28455   0.44605   0.62441   1.000
    C590    C    0.23134   0.44056   0.62070   1.000
    H220    H    0.22990   0.42220   0.61920   1.000
    S221    S    0.21796   0.48948   0.62334   1.000
    C591    C    0.22177   0.47786   0.62411   1.000
    H221    H    0.21130   0.49300   0.62550   1.000
    S222    S    0.23539   0.42844   0.62304   1.000
    C592    C    0.30165   0.42283   0.62367   1.000
    H222    H    0.29380   0.40610   0.62430   1.000
    S223    S    0.79184   0.91302   0.62371   1.000
    O223    O    0.66566   0.96262   0.62491   1.000
    O224    O    0.67981   0.92279   0.61178   1.000
    O225    O    0.83880   0.87992   0.62442   1.000
    C593    C    0.68265   0.94598   0.61942   1.000
    C594    C    0.71110   0.95456   0.62206   1.000
    C595    C    0.75067   0.97985   0.62438   1.000
    C596    C    0.75777   0.95318   0.62414   1.000
    C597    C    0.78455   0.94605   0.62441   1.000
    C598    C    0.73134   0.94056   0.62070   1.000
    H223    H    0.72990   0.92220   0.61920   1.000
    S224    S    0.71796   0.98948   0.62334   1.000
    C599    C    0.72177   0.97786   0.62411   1.000
    H224    H    0.71130   0.99300   0.62550   1.000
    S225    S    0.73539   0.92844   0.62304   1.000
    C600    C    0.80165   0.92283   0.62367   1.000
    H225    H    0.79380   0.90610   0.62430   1.000
    S226    S    0.79184   0.41302   0.12371   1.000
    O226    O    0.66566   0.46262   0.12491   1.000
    O227    O    0.67981   0.42279   0.11178   1.000
    O228    O    0.83880   0.37992   0.12442   1.000
    C601    C    0.68265   0.44598   0.11942   1.000
    C602    C    0.71110   0.45456   0.12206   1.000
    C603    C    0.75067   0.47985   0.12438   1.000
    C604    C    0.75777   0.45318   0.12414   1.000
    C605    C    0.78455   0.44605   0.12441   1.000
    C606    C    0.73134   0.44056   0.12070   1.000
    H226    H    0.72990   0.42220   0.11920   1.000
    S227    S    0.71796   0.48948   0.12334   1.000
    C607    C    0.72177   0.47786   0.12411   1.000
    H227    H    0.71130   0.49300   0.12550   1.000
    S228    S    0.73539   0.42844   0.12304   1.000
    C608    C    0.80165   0.42283   0.12367   1.000
    H228    H    0.79380   0.40610   0.12430   1.000
    S229    S    0.95816   0.41302   0.62629   1.000
    O229    O    0.08434   0.46262   0.62509   1.000
    O230    O    0.07019   0.42279   0.63822   1.000
    O231    O    0.91120   0.37992   0.62558   1.000
    C609    C    0.06735   0.44598   0.63058   1.000
    C610    C    0.03890   0.45456   0.62794   1.000
    C611    C    0.99933   0.47985   0.62562   1.000
    C612    C    0.99223   0.45318   0.62586   1.000
    C613    C    0.96545   0.44605   0.62559   1.000
    C614    C    0.01866   0.44056   0.62930   1.000
    H229    H    0.02010   0.42220   0.63080   1.000
    S230    S    0.03204   0.48948   0.62666   1.000
    C615    C    0.02823   0.47786   0.62589   1.000
    H230    H    0.03870   0.49300   0.62450   1.000
    S231    S    0.01461   0.42844   0.62696   1.000
    C616    C    0.94835   0.42283   0.62633   1.000
    H231    H    0.95620   0.40610   0.62570   1.000
    S232    S    0.95816   0.91302   0.12629   1.000
    O232    O    0.08434   0.96262   0.12509   1.000
    O233    O    0.07019   0.92279   0.13822   1.000
    O234    O    0.91120   0.87992   0.12558   1.000
    C617    C    0.06735   0.94598   0.13058   1.000
    C618    C    0.03890   0.95456   0.12794   1.000
    C619    C    0.99933   0.97985   0.12562   1.000
    C620    C    0.99223   0.95318   0.12586   1.000
    C621    C    0.96545   0.94605   0.12559   1.000
    C622    C    0.01866   0.94056   0.12930   1.000
    H232    H    0.02010   0.92220   0.13080   1.000
    S233    S    0.03204   0.98948   0.12666   1.000
    C623    C    0.02823   0.97786   0.12589   1.000
    H233    H    0.03870   0.99300   0.12450   1.000
    S234    S    0.01461   0.92844   0.12696   1.000
    C624    C    0.94835   0.92283   0.12633   1.000
    H234    H    0.95620   0.90610   0.12570   1.000
    S235    S    0.45816   0.41302   0.12629   1.000
    O235    O    0.58434   0.46262   0.12509   1.000
    O236    O    0.57019   0.42279   0.13822   1.000
    O237    O    0.41120   0.37992   0.12558   1.000
    C625    C    0.56735   0.44598   0.13058   1.000
    C626    C    0.53890   0.45456   0.12794   1.000
    C627    C    0.49933   0.47985   0.12562   1.000
    C628    C    0.49223   0.45318   0.12586   1.000
    C629    C    0.46545   0.44605   0.12559   1.000
    C630    C    0.51866   0.44056   0.12930   1.000
    H235    H    0.52010   0.42220   0.13080   1.000
    S236    S    0.53204   0.48948   0.12666   1.000
    C631    C    0.52823   0.47786   0.12589   1.000
    H236    H    0.53870   0.49300   0.12450   1.000
    S237    S    0.51461   0.42844   0.12696   1.000
    C632    C    0.44835   0.42283   0.12633   1.000
    H237    H    0.45620   0.40610   0.12570   1.000
    S238    S    0.45816   0.91302   0.62629   1.000
    O238    O    0.58434   0.96262   0.62509   1.000
    O239    O    0.57019   0.92279   0.63822   1.000
    O240    O    0.41120   0.87992   0.62558   1.000
    C633    C    0.56735   0.94598   0.63058   1.000
    C634    C    0.53890   0.95456   0.62794   1.000
    C635    C    0.49933   0.97985   0.62562   1.000
    C636    C    0.49223   0.95318   0.62586   1.000
    C637    C    0.46545   0.94605   0.62559   1.000
    C638    C    0.51866   0.94056   0.62930   1.000
    H238    H    0.52010   0.92220   0.63080   1.000
    S239    S    0.53204   0.98948   0.62666   1.000
    C639    C    0.52823   0.97786   0.62589   1.000
    H239    H    0.53870   0.99300   0.62450   1.000
    S240    S    0.51461   0.92844   0.62696   1.000
    C640    C    0.44835   0.92283   0.62633   1.000
    H240    H    0.45620   0.90610   0.62570   1.000
    S241    S    0.83698   0.12629   0.79184   1.000
    O241    O    0.78738   0.12509   0.66566   1.000
    O242    O    0.82721   0.13822   0.67981   1.000
    O243    O    0.87008   0.12558   0.83880   1.000
    C641    C    0.80402   0.13058   0.68265   1.000
    C642    C    0.79544   0.12794   0.71110   1.000
    C643    C    0.77015   0.12562   0.75067   1.000
    C644    C    0.79682   0.12586   0.75777   1.000
    C645    C    0.80395   0.12559   0.78455   1.000
    C646    C    0.80944   0.12930   0.73134   1.000
    H241    H    0.82780   0.13080   0.72990   1.000
    S242    S    0.76052   0.12666   0.71796   1.000
    C647    C    0.77214   0.12589   0.72177   1.000
    H242    H    0.75700   0.12450   0.71130   1.000
    S243    S    0.82156   0.12696   0.73539   1.000
    C648    C    0.82717   0.12633   0.80165   1.000
    H243    H    0.84390   0.12570   0.79380   1.000
    S244    S    0.83698   0.62629   0.29184   1.000
    O244    O    0.78738   0.62509   0.16566   1.000
    O245    O    0.82721   0.63822   0.17981   1.000
    O246    O    0.87008   0.62558   0.33880   1.000
    C649    C    0.80402   0.63058   0.18265   1.000
    C650    C    0.79544   0.62794   0.21110   1.000
    C651    C    0.77015   0.62562   0.25067   1.000
    C652    C    0.79682   0.62586   0.25777   1.000
    C653    C    0.80395   0.62559   0.28455   1.000
    C654    C    0.80944   0.62930   0.23134   1.000
    H244    H    0.82780   0.63080   0.22990   1.000
    S245    S    0.76052   0.62666   0.21796   1.000
    C655    C    0.77214   0.62589   0.22177   1.000
    H245    H    0.75700   0.62450   0.21130   1.000
    S246    S    0.82156   0.62696   0.23539   1.000
    C656    C    0.82717   0.62633   0.30165   1.000
    H246    H    0.84390   0.62570   0.29380   1.000
    S247    S    0.33698   0.12629   0.29184   1.000
    O247    O    0.28738   0.12509   0.16566   1.000
    O248    O    0.32721   0.13822   0.17981   1.000
    O249    O    0.37008   0.12558   0.33880   1.000
    C657    C    0.30402   0.13058   0.18265   1.000
    C658    C    0.29544   0.12794   0.21110   1.000
    C659    C    0.27015   0.12562   0.25067   1.000
    C660    C    0.29682   0.12586   0.25777   1.000
    C661    C    0.30395   0.12559   0.28455   1.000
    C662    C    0.30944   0.12930   0.23134   1.000
    H247    H    0.32780   0.13080   0.22990   1.000
    S248    S    0.26052   0.12666   0.21796   1.000
    C663    C    0.27214   0.12589   0.22177   1.000
    H248    H    0.25700   0.12450   0.21130   1.000
    S249    S    0.32156   0.12696   0.23539   1.000
    C664    C    0.32717   0.12633   0.30165   1.000
    H249    H    0.34390   0.12570   0.29380   1.000
    S250    S    0.33698   0.62629   0.79184   1.000
    O250    O    0.28738   0.62509   0.66566   1.000
    O251    O    0.32721   0.63822   0.67981   1.000
    O252    O    0.37008   0.62558   0.83880   1.000
    C665    C    0.30402   0.63058   0.68265   1.000
    C666    C    0.29544   0.62794   0.71110   1.000
    C667    C    0.27015   0.62562   0.75067   1.000
    C668    C    0.29682   0.62586   0.75777   1.000
    C669    C    0.30395   0.62559   0.78455   1.000
    C670    C    0.30944   0.62930   0.73134   1.000
    H250    H    0.32780   0.63080   0.72990   1.000
    S251    S    0.26052   0.62666   0.71796   1.000
    C671    C    0.27214   0.62589   0.72177   1.000
    H251    H    0.25700   0.62450   0.71130   1.000
    S252    S    0.32156   0.62696   0.73539   1.000
    C672    C    0.32717   0.62633   0.80165   1.000
    H252    H    0.34390   0.62570   0.79380   1.000
    S253    S    0.33698   0.62371   0.45816   1.000
    O253    O    0.28738   0.62491   0.58434   1.000
    O254    O    0.32721   0.61178   0.57019   1.000
    O255    O    0.37008   0.62442   0.41120   1.000
    C673    C    0.30402   0.61942   0.56735   1.000
    C674    C    0.29544   0.62206   0.53890   1.000
    C675    C    0.27015   0.62438   0.49933   1.000
    C676    C    0.29682   0.62414   0.49223   1.000
    C677    C    0.30395   0.62441   0.46545   1.000
    C678    C    0.30944   0.62070   0.51866   1.000
    H253    H    0.32780   0.61920   0.52010   1.000
    S254    S    0.26052   0.62334   0.53204   1.000
    C679    C    0.27214   0.62411   0.52823   1.000
    H254    H    0.25700   0.62550   0.53870   1.000
    S255    S    0.32156   0.62304   0.51461   1.000
    C680    C    0.32717   0.62367   0.44835   1.000
    H255    H    0.34390   0.62430   0.45620   1.000
    S256    S    0.33698   0.12371   0.95816   1.000
    O256    O    0.28738   0.12491   0.08434   1.000
    O257    O    0.32721   0.11178   0.07019   1.000
    O258    O    0.37008   0.12442   0.91120   1.000
    C681    C    0.30402   0.11942   0.06735   1.000
    C682    C    0.29544   0.12206   0.03890   1.000
    C683    C    0.27015   0.12438   0.99933   1.000
    C684    C    0.29682   0.12414   0.99223   1.000
    C685    C    0.30395   0.12441   0.96545   1.000
    C686    C    0.30944   0.12070   0.01866   1.000
    H256    H    0.32780   0.11920   0.02010   1.000
    S257    S    0.26052   0.12334   0.03204   1.000
    C687    C    0.27214   0.12411   0.02823   1.000
    H257    H    0.25700   0.12550   0.03870   1.000
    S258    S    0.32156   0.12304   0.01461   1.000
    C688    C    0.32717   0.12367   0.94835   1.000
    H258    H    0.34390   0.12430   0.95620   1.000
    S259    S    0.83698   0.62371   0.95816   1.000
    O259    O    0.78738   0.62491   0.08434   1.000
    O260    O    0.82721   0.61178   0.07019   1.000
    O261    O    0.87008   0.62442   0.91120   1.000
    C689    C    0.80402   0.61942   0.06735   1.000
    C690    C    0.79544   0.62206   0.03890   1.000
    C691    C    0.77015   0.62438   0.99933   1.000
    C692    C    0.79682   0.62414   0.99223   1.000
    C693    C    0.80395   0.62441   0.96545   1.000
    C694    C    0.80944   0.62070   0.01866   1.000
    H259    H    0.82780   0.61920   0.02010   1.000
    S260    S    0.76052   0.62334   0.03204   1.000
    C695    C    0.77214   0.62411   0.02823   1.000
    H260    H    0.75700   0.62550   0.03870   1.000
    S261    S    0.82156   0.62304   0.01461   1.000
    C696    C    0.82717   0.62367   0.94835   1.000
    H261    H    0.84390   0.62430   0.95620   1.000
    S262    S    0.83698   0.12371   0.45816   1.000
    O262    O    0.78738   0.12491   0.58434   1.000
    O263    O    0.82721   0.11178   0.57019   1.000
    O264    O    0.87008   0.12442   0.41120   1.000
    C697    C    0.80402   0.11942   0.56735   1.000
    C698    C    0.79544   0.12206   0.53890   1.000
    C699    C    0.77015   0.12438   0.49933   1.000
    C700    C    0.79682   0.12414   0.49223   1.000
    C701    C    0.80395   0.12441   0.46545   1.000
    C702    C    0.80944   0.12070   0.51866   1.000
    H262    H    0.82780   0.11920   0.52010   1.000
    S263    S    0.76052   0.12334   0.53204   1.000
    C703    C    0.77214   0.12411   0.52823   1.000
    H263    H    0.75700   0.12550   0.53870   1.000
    S264    S    0.82156   0.12304   0.51461   1.000
    C704    C    0.82717   0.12367   0.44835   1.000
    H264    H    0.84390   0.12430   0.45620   1.000
    S265    S    0.41302   0.62629   0.95816   1.000
    O265    O    0.46262   0.62509   0.08434   1.000
    O266    O    0.42279   0.63822   0.07019   1.000
    O267    O    0.37992   0.62558   0.91120   1.000
    C705    C    0.44598   0.63058   0.06735   1.000
    C706    C    0.45456   0.62794   0.03890   1.000
    C707    C    0.47985   0.62562   0.99933   1.000
    C708    C    0.45318   0.62586   0.99223   1.000
    C709    C    0.44605   0.62559   0.96545   1.000
    C710    C    0.44056   0.62930   0.01866   1.000
    H265    H    0.42220   0.63080   0.02010   1.000
    S266    S    0.48948   0.62666   0.03204   1.000
    C711    C    0.47786   0.62589   0.02823   1.000
    H266    H    0.49300   0.62450   0.03870   1.000
    S267    S    0.42844   0.62696   0.01461   1.000
    C712    C    0.42283   0.62633   0.94835   1.000
    H267    H    0.40610   0.62570   0.95620   1.000
    S268    S    0.41302   0.12629   0.45816   1.000
    O268    O    0.46262   0.12509   0.58434   1.000
    O269    O    0.42279   0.13822   0.57019   1.000
    O270    O    0.37992   0.12558   0.41120   1.000
    C713    C    0.44598   0.13058   0.56735   1.000
    C714    C    0.45456   0.12794   0.53890   1.000
    C715    C    0.47985   0.12562   0.49933   1.000
    C716    C    0.45318   0.12586   0.49223   1.000
    C717    C    0.44605   0.12559   0.46545   1.000
    C718    C    0.44056   0.12930   0.51866   1.000
    H268    H    0.42220   0.13080   0.52010   1.000
    S269    S    0.48948   0.12666   0.53204   1.000
    C719    C    0.47786   0.12589   0.52823   1.000
    H269    H    0.49300   0.12450   0.53870   1.000
    S270    S    0.42844   0.12696   0.51461   1.000
    C720    C    0.42283   0.12633   0.44835   1.000
    H270    H    0.40610   0.12570   0.45620   1.000
    S271    S    0.91302   0.62629   0.45816   1.000
    O271    O    0.96262   0.62509   0.58434   1.000
    O272    O    0.92279   0.63822   0.57019   1.000
    O273    O    0.87992   0.62558   0.41120   1.000
    C721    C    0.94598   0.63058   0.56735   1.000
    C722    C    0.95456   0.62794   0.53890   1.000
    C723    C    0.97985   0.62562   0.49933   1.000
    C724    C    0.95318   0.62586   0.49223   1.000
    C725    C    0.94605   0.62559   0.46545   1.000
    C726    C    0.94056   0.62930   0.51866   1.000
    H271    H    0.92220   0.63080   0.52010   1.000
    S272    S    0.98948   0.62666   0.53204   1.000
    C727    C    0.97786   0.62589   0.52823   1.000
    H272    H    0.99300   0.62450   0.53870   1.000
    S273    S    0.92844   0.62696   0.51461   1.000
    C728    C    0.92283   0.62633   0.44835   1.000
    H273    H    0.90610   0.62570   0.45620   1.000
    S274    S    0.91302   0.12629   0.95816   1.000
    O274    O    0.96262   0.12509   0.08434   1.000
    O275    O    0.92279   0.13822   0.07019   1.000
    O276    O    0.87992   0.12558   0.91120   1.000
    C729    C    0.94598   0.13058   0.06735   1.000
    C730    C    0.95456   0.12794   0.03890   1.000
    C731    C    0.97985   0.12562   0.99933   1.000
    C732    C    0.95318   0.12586   0.99223   1.000
    C733    C    0.94605   0.12559   0.96545   1.000
    C734    C    0.94056   0.12930   0.01866   1.000
    H274    H    0.92220   0.13080   0.02010   1.000
    S275    S    0.98948   0.12666   0.03204   1.000
    C735    C    0.97786   0.12589   0.02823   1.000
    H275    H    0.99300   0.12450   0.03870   1.000
    S276    S    0.92844   0.12696   0.01461   1.000
    C736    C    0.92283   0.12633   0.94835   1.000
    H276    H    0.90610   0.12570   0.95620   1.000
    S277    S    0.91302   0.12371   0.29184   1.000
    O277    O    0.96262   0.12491   0.16566   1.000
    O278    O    0.92279   0.11178   0.17981   1.000
    O279    O    0.87992   0.12442   0.33880   1.000
    C737    C    0.94598   0.11942   0.18265   1.000
    C738    C    0.95456   0.12206   0.21110   1.000
    C739    C    0.97985   0.12438   0.25067   1.000
    C740    C    0.95318   0.12414   0.25777   1.000
    C741    C    0.94605   0.12441   0.28455   1.000
    C742    C    0.94056   0.12070   0.23134   1.000
    H277    H    0.92220   0.11920   0.22990   1.000
    S278    S    0.98948   0.12334   0.21796   1.000
    C743    C    0.97786   0.12411   0.22177   1.000
    H278    H    0.99300   0.12550   0.21130   1.000
    S279    S    0.92844   0.12304   0.23539   1.000
    C744    C    0.92283   0.12367   0.30165   1.000
    H279    H    0.90610   0.12430   0.29380   1.000
    S280    S    0.91302   0.62371   0.79184   1.000
    O280    O    0.96262   0.62491   0.66566   1.000
    O281    O    0.92279   0.61178   0.67981   1.000
    O282    O    0.87992   0.62442   0.83880   1.000
    C745    C    0.94598   0.61942   0.68265   1.000
    C746    C    0.95456   0.62206   0.71110   1.000
    C747    C    0.97985   0.62438   0.75067   1.000
    C748    C    0.95318   0.62414   0.75777   1.000
    C749    C    0.94605   0.62441   0.78455   1.000
    C750    C    0.94056   0.62070   0.73134   1.000
    H280    H    0.92220   0.61920   0.72990   1.000
    S281    S    0.98948   0.62334   0.71796   1.000
    C751    C    0.97786   0.62411   0.72177   1.000
    H281    H    0.99300   0.62550   0.71130   1.000
    S282    S    0.92844   0.62304   0.73539   1.000
    C752    C    0.92283   0.62367   0.80165   1.000
    H282    H    0.90610   0.62430   0.79380   1.000
    S283    S    0.41302   0.12371   0.79184   1.000
    O283    O    0.46262   0.12491   0.66566   1.000
    O284    O    0.42279   0.11178   0.67981   1.000
    O285    O    0.37992   0.12442   0.83880   1.000
    C753    C    0.44598   0.11942   0.68265   1.000
    C754    C    0.45456   0.12206   0.71110   1.000
    C755    C    0.47985   0.12438   0.75067   1.000
    C756    C    0.45318   0.12414   0.75777   1.000
    C757    C    0.44605   0.12441   0.78455   1.000
    C758    C    0.44056   0.12070   0.73134   1.000
    H283    H    0.42220   0.11920   0.72990   1.000
    S284    S    0.48948   0.12334   0.71796   1.000
    C759    C    0.47786   0.12411   0.72177   1.000
    H284    H    0.49300   0.12550   0.71130   1.000
    S285    S    0.42844   0.12304   0.73539   1.000
    C760    C    0.42283   0.12367   0.80165   1.000
    H285    H    0.40610   0.12430   0.79380   1.000
    S286    S    0.41302   0.62371   0.29184   1.000
    O286    O    0.46262   0.62491   0.16566   1.000
    O287    O    0.42279   0.61178   0.17981   1.000
    O288    O    0.37992   0.62442   0.33880   1.000
    C761    C    0.44598   0.61942   0.18265   1.000
    C762    C    0.45456   0.62206   0.21110   1.000
    C763    C    0.47985   0.62438   0.25067   1.000
    C764    C    0.45318   0.62414   0.25777   1.000
    C765    C    0.44605   0.62441   0.28455   1.000
    C766    C    0.44056   0.62070   0.23134   1.000
    H286    H    0.42220   0.61920   0.22990   1.000
    S287    S    0.48948   0.62334   0.21796   1.000
    C767    C    0.47786   0.62411   0.22177   1.000
    H287    H    0.49300   0.62550   0.21130   1.000
    S288    S    0.42844   0.62304   0.23539   1.000
    C768    C    0.42283   0.62367   0.30165   1.000
    H288    H    0.40610   0.62430   0.29380   1.000
    S289    S    0.29184   0.12371   0.91302   1.000
    O289    O    0.16566   0.12491   0.96262   1.000
    O290    O    0.17981   0.11178   0.92279   1.000
    O291    O    0.33880   0.12442   0.87992   1.000
    C769    C    0.18265   0.11942   0.94598   1.000
    C770    C    0.21110   0.12206   0.95456   1.000
    C771    C    0.25067   0.12438   0.97985   1.000
    C772    C    0.25777   0.12414   0.95318   1.000
    C773    C    0.28455   0.12441   0.94605   1.000
    C774    C    0.23134   0.12070   0.94056   1.000
    H289    H    0.22990   0.11920   0.92220   1.000
    S290    S    0.21796   0.12334   0.98948   1.000
    C775    C    0.22177   0.12411   0.97786   1.000
    H290    H    0.21130   0.12550   0.99300   1.000
    S291    S    0.23539   0.12304   0.92844   1.000
    C776    C    0.30165   0.12367   0.92283   1.000
    H291    H    0.29380   0.12430   0.90610   1.000
    S292    S    0.29184   0.62371   0.41302   1.000
    O292    O    0.16566   0.62491   0.46262   1.000
    O293    O    0.17981   0.61178   0.42279   1.000
    O294    O    0.33880   0.62442   0.37992   1.000
    C777    C    0.18265   0.61942   0.44598   1.000
    C778    C    0.21110   0.62206   0.45456   1.000
    C779    C    0.25067   0.62438   0.47985   1.000
    C780    C    0.25777   0.62414   0.45318   1.000
    C781    C    0.28455   0.62441   0.44605   1.000
    C782    C    0.23134   0.62070   0.44056   1.000
    H292    H    0.22990   0.61920   0.42220   1.000
    S293    S    0.21796   0.62334   0.48948   1.000
    C783    C    0.22177   0.62411   0.47786   1.000
    H293    H    0.21130   0.62550   0.49300   1.000
    S294    S    0.23539   0.62304   0.42844   1.000
    C784    C    0.30165   0.62367   0.42283   1.000
    H294    H    0.29380   0.62430   0.40610   1.000
    S295    S    0.79184   0.12371   0.41302   1.000
    O295    O    0.66566   0.12491   0.46262   1.000
    O296    O    0.67981   0.11178   0.42279   1.000
    O297    O    0.83880   0.12442   0.37992   1.000
    C785    C    0.68265   0.11942   0.44598   1.000
    C786    C    0.71110   0.12206   0.45456   1.000
    C787    C    0.75067   0.12438   0.47985   1.000
    C788    C    0.75777   0.12414   0.45318   1.000
    C789    C    0.78455   0.12441   0.44605   1.000
    C790    C    0.73134   0.12070   0.44056   1.000
    H295    H    0.72990   0.11920   0.42220   1.000
    S296    S    0.71796   0.12334   0.48948   1.000
    C791    C    0.72177   0.12411   0.47786   1.000
    H296    H    0.71130   0.12550   0.49300   1.000
    S297    S    0.73539   0.12304   0.42844   1.000
    C792    C    0.80165   0.12367   0.42283   1.000
    H297    H    0.79380   0.12430   0.40610   1.000
    S298    S    0.79184   0.62371   0.91302   1.000
    O298    O    0.66566   0.62491   0.96262   1.000
    O299    O    0.67981   0.61178   0.92279   1.000
    O300    O    0.83880   0.62442   0.87992   1.000
    C793    C    0.68265   0.61942   0.94598   1.000
    C794    C    0.71110   0.62206   0.95456   1.000
    C795    C    0.75067   0.62438   0.97985   1.000
    C796    C    0.75777   0.62414   0.95318   1.000
    C797    C    0.78455   0.62441   0.94605   1.000
    C798    C    0.73134   0.62070   0.94056   1.000
    H298    H    0.72990   0.61920   0.92220   1.000
    S299    S    0.71796   0.62334   0.98948   1.000
    C799    C    0.72177   0.62411   0.97786   1.000
    H299    H    0.71130   0.62550   0.99300   1.000
    S300    S    0.73539   0.62304   0.92844   1.000
    C800    C    0.80165   0.62367   0.92283   1.000
    H300    H    0.79380   0.62430   0.90610   1.000
    S301    S    0.95816   0.62629   0.41302   1.000
    O301    O    0.08434   0.62509   0.46262   1.000
    O302    O    0.07019   0.63822   0.42279   1.000
    O303    O    0.91120   0.62558   0.37992   1.000
    C801    C    0.06735   0.63058   0.44598   1.000
    C802    C    0.03890   0.62794   0.45456   1.000
    C803    C    0.99933   0.62562   0.47985   1.000
    C804    C    0.99223   0.62586   0.45318   1.000
    C805    C    0.96545   0.62559   0.44605   1.000
    C806    C    0.01866   0.62930   0.44056   1.000
    H301    H    0.02010   0.63080   0.42220   1.000
    S302    S    0.03204   0.62666   0.48948   1.000
    C807    C    0.02823   0.62589   0.47786   1.000
    H302    H    0.03870   0.62450   0.49300   1.000
    S303    S    0.01461   0.62696   0.42844   1.000
    C808    C    0.94835   0.62633   0.42283   1.000
    H303    H    0.95620   0.62570   0.40610   1.000
    S304    S    0.95816   0.12629   0.91302   1.000
    O304    O    0.08434   0.12509   0.96262   1.000
    O305    O    0.07019   0.13822   0.92279   1.000
    O306    O    0.91120   0.12558   0.87992   1.000
    C809    C    0.06735   0.13058   0.94598   1.000
    C810    C    0.03890   0.12794   0.95456   1.000
    C811    C    0.99933   0.12562   0.97985   1.000
    C812    C    0.99223   0.12586   0.95318   1.000
    C813    C    0.96545   0.12559   0.94605   1.000
    C814    C    0.01866   0.12930   0.94056   1.000
    H304    H    0.02010   0.13080   0.92220   1.000
    S305    S    0.03204   0.12666   0.98948   1.000
    C815    C    0.02823   0.12589   0.97786   1.000
    H305    H    0.03870   0.12450   0.99300   1.000
    S306    S    0.01461   0.12696   0.92844   1.000
    C816    C    0.94835   0.12633   0.92283   1.000
    H306    H    0.95620   0.12570   0.90610   1.000
    S307    S    0.45816   0.62629   0.91302   1.000
    O307    O    0.58434   0.62509   0.96262   1.000
    O308    O    0.57019   0.63822   0.92279   1.000
    O309    O    0.41120   0.62558   0.87992   1.000
    C817    C    0.56735   0.63058   0.94598   1.000
    C818    C    0.53890   0.62794   0.95456   1.000
    C819    C    0.49933   0.62562   0.97985   1.000
    C820    C    0.49223   0.62586   0.95318   1.000
    C821    C    0.46545   0.62559   0.94605   1.000
    C822    C    0.51866   0.62930   0.94056   1.000
    H307    H    0.52010   0.63080   0.92220   1.000
    S308    S    0.53204   0.62666   0.98948   1.000
    C823    C    0.52823   0.62589   0.97786   1.000
    H308    H    0.53870   0.62450   0.99300   1.000
    S309    S    0.51461   0.62696   0.92844   1.000
    C824    C    0.44835   0.62633   0.92283   1.000
    H309    H    0.45620   0.62570   0.90610   1.000
    S310    S    0.45816   0.12629   0.41302   1.000
    O310    O    0.58434   0.12509   0.46262   1.000
    O311    O    0.57019   0.13822   0.42279   1.000
    O312    O    0.41120   0.12558   0.37992   1.000
    C825    C    0.56735   0.13058   0.44598   1.000
    C826    C    0.53890   0.12794   0.45456   1.000
    C827    C    0.49933   0.12562   0.47985   1.000
    C828    C    0.49223   0.12586   0.45318   1.000
    C829    C    0.46545   0.12559   0.44605   1.000
    C830    C    0.51866   0.12930   0.44056   1.000
    H310    H    0.52010   0.13080   0.42220   1.000
    S311    S    0.53204   0.12666   0.48948   1.000
    C831    C    0.52823   0.12589   0.47786   1.000
    H311    H    0.53870   0.12450   0.49300   1.000
    S312    S    0.51461   0.12696   0.42844   1.000
    C832    C    0.44835   0.12633   0.42283   1.000
    H312    H    0.45620   0.12570   0.40610   1.000
    S313    S    0.45816   0.62371   0.33698   1.000
    O313    O    0.58434   0.62491   0.28738   1.000
    O314    O    0.57019   0.61178   0.32721   1.000
    O315    O    0.41120   0.62442   0.37008   1.000
    C833    C    0.56735   0.61942   0.30402   1.000
    C834    C    0.53890   0.62206   0.29544   1.000
    C835    C    0.49933   0.62438   0.27015   1.000
    C836    C    0.49223   0.62414   0.29682   1.000
    C837    C    0.46545   0.62441   0.30395   1.000
    C838    C    0.51866   0.62070   0.30944   1.000
    H313    H    0.52010   0.61920   0.32780   1.000
    S314    S    0.53204   0.62334   0.26052   1.000
    C839    C    0.52823   0.62411   0.27214   1.000
    H314    H    0.53870   0.62550   0.25700   1.000
    S315    S    0.51461   0.62304   0.32156   1.000
    C840    C    0.44835   0.62367   0.32717   1.000
    H315    H    0.45620   0.62430   0.34390   1.000
    S316    S    0.45816   0.12371   0.83698   1.000
    O316    O    0.58434   0.12491   0.78738   1.000
    O317    O    0.57019   0.11178   0.82721   1.000
    O318    O    0.41120   0.12442   0.87008   1.000
    C841    C    0.56735   0.11942   0.80402   1.000
    C842    C    0.53890   0.12206   0.79544   1.000
    C843    C    0.49933   0.12438   0.77015   1.000
    C844    C    0.49223   0.12414   0.79682   1.000
    C845    C    0.46545   0.12441   0.80395   1.000
    C846    C    0.51866   0.12070   0.80944   1.000
    H316    H    0.52010   0.11920   0.82780   1.000
    S317    S    0.53204   0.12334   0.76052   1.000
    C847    C    0.52823   0.12411   0.77214   1.000
    H317    H    0.53870   0.12550   0.75700   1.000
    S318    S    0.51461   0.12304   0.82156   1.000
    C848    C    0.44835   0.12367   0.82717   1.000
    H318    H    0.45620   0.12430   0.84390   1.000
    S319    S    0.95816   0.62371   0.83698   1.000
    O319    O    0.08434   0.62491   0.78738   1.000
    O320    O    0.07019   0.61178   0.82721   1.000
    O321    O    0.91120   0.62442   0.87008   1.000
    C849    C    0.06735   0.61942   0.80402   1.000
    C850    C    0.03890   0.62206   0.79544   1.000
    C851    C    0.99933   0.62438   0.77015   1.000
    C852    C    0.99223   0.62414   0.79682   1.000
    C853    C    0.96545   0.62441   0.80395   1.000
    C854    C    0.01866   0.62070   0.80944   1.000
    H319    H    0.02010   0.61920   0.82780   1.000
    S320    S    0.03204   0.62334   0.76052   1.000
    C855    C    0.02823   0.62411   0.77214   1.000
    H320    H    0.03870   0.62550   0.75700   1.000
    S321    S    0.01461   0.62304   0.82156   1.000
    C856    C    0.94835   0.62367   0.82717   1.000
    H321    H    0.95620   0.62430   0.84390   1.000
    S322    S    0.95816   0.12371   0.33698   1.000
    O322    O    0.08434   0.12491   0.28738   1.000
    O323    O    0.07019   0.11178   0.32721   1.000
    O324    O    0.91120   0.12442   0.37008   1.000
    C857    C    0.06735   0.11942   0.30402   1.000
    C858    C    0.03890   0.12206   0.29544   1.000
    C859    C    0.99933   0.12438   0.27015   1.000
    C860    C    0.99223   0.12414   0.29682   1.000
    C861    C    0.96545   0.12441   0.30395   1.000
    C862    C    0.01866   0.12070   0.30944   1.000
    H322    H    0.02010   0.11920   0.32780   1.000
    S323    S    0.03204   0.12334   0.26052   1.000
    C863    C    0.02823   0.12411   0.27214   1.000
    H323    H    0.03870   0.12550   0.25700   1.000
    S324    S    0.01461   0.12304   0.32156   1.000
    C864    C    0.94835   0.12367   0.32717   1.000
    H324    H    0.95620   0.12430   0.34390   1.000
    S325    S    0.79184   0.12629   0.83698   1.000
    O325    O    0.66566   0.12509   0.78738   1.000
    O326    O    0.67981   0.13822   0.82721   1.000
    O327    O    0.83880   0.12558   0.87008   1.000
    C865    C    0.68265   0.13058   0.80402   1.000
    C866    C    0.71110   0.12794   0.79544   1.000
    C867    C    0.75067   0.12562   0.77015   1.000
    C868    C    0.75777   0.12586   0.79682   1.000
    C869    C    0.78455   0.12559   0.80395   1.000
    C870    C    0.73134   0.12930   0.80944   1.000
    H325    H    0.72990   0.13080   0.82780   1.000
    S326    S    0.71796   0.12666   0.76052   1.000
    C871    C    0.72177   0.12589   0.77214   1.000
    H326    H    0.71130   0.12450   0.75700   1.000
    S327    S    0.73539   0.12696   0.82156   1.000
    C872    C    0.80165   0.12633   0.82717   1.000
    H327    H    0.79380   0.12570   0.84390   1.000
    S328    S    0.79184   0.62629   0.33698   1.000
    O328    O    0.66566   0.62509   0.28738   1.000
    O329    O    0.67981   0.63822   0.32721   1.000
    O330    O    0.83880   0.62558   0.37008   1.000
    C873    C    0.68265   0.63058   0.30402   1.000
    C874    C    0.71110   0.62794   0.29544   1.000
    C875    C    0.75067   0.62562   0.27015   1.000
    C876    C    0.75777   0.62586   0.29682   1.000
    C877    C    0.78455   0.62559   0.30395   1.000
    C878    C    0.73134   0.62930   0.30944   1.000
    H328    H    0.72990   0.63080   0.32780   1.000
    S329    S    0.71796   0.62666   0.26052   1.000
    C879    C    0.72177   0.62589   0.27214   1.000
    H329    H    0.71130   0.62450   0.25700   1.000
    S330    S    0.73539   0.62696   0.32156   1.000
    C880    C    0.80165   0.62633   0.32717   1.000
    H330    H    0.79380   0.62570   0.34390   1.000
    S331    S    0.29184   0.12629   0.33698   1.000
    O331    O    0.16566   0.12509   0.28738   1.000
    O332    O    0.17981   0.13822   0.32721   1.000
    O333    O    0.33880   0.12558   0.37008   1.000
    C881    C    0.18265   0.13058   0.30402   1.000
    C882    C    0.21110   0.12794   0.29544   1.000
    C883    C    0.25067   0.12562   0.27015   1.000
    C884    C    0.25777   0.12586   0.29682   1.000
    C885    C    0.28455   0.12559   0.30395   1.000
    C886    C    0.23134   0.12930   0.30944   1.000
    H331    H    0.22990   0.13080   0.32780   1.000
    S332    S    0.21796   0.12666   0.26052   1.000
    C887    C    0.22177   0.12589   0.27214   1.000
    H332    H    0.21130   0.12450   0.25700   1.000
    S333    S    0.23539   0.12696   0.32156   1.000
    C888    C    0.30165   0.12633   0.32717   1.000
    H333    H    0.29380   0.12570   0.34390   1.000
    S334    S    0.29184   0.62629   0.83698   1.000
    O334    O    0.16566   0.62509   0.78738   1.000
    O335    O    0.17981   0.63822   0.82721   1.000
    O336    O    0.33880   0.62558   0.87008   1.000
    C889    C    0.18265   0.63058   0.80402   1.000
    C890    C    0.21110   0.62794   0.79544   1.000
    C891    C    0.25067   0.62562   0.77015   1.000
    C892    C    0.25777   0.62586   0.79682   1.000
    C893    C    0.28455   0.62559   0.80395   1.000
    C894    C    0.23134   0.62930   0.80944   1.000
    H334    H    0.22990   0.63080   0.82780   1.000
    S335    S    0.21796   0.62666   0.76052   1.000
    C895    C    0.22177   0.62589   0.77214   1.000
    H335    H    0.21130   0.62450   0.75700   1.000
    S336    S    0.23539   0.62696   0.82156   1.000
    C896    C    0.30165   0.62633   0.82717   1.000
    H336    H    0.29380   0.62570   0.84390   1.000
    S337    S    0.91302   0.29184   0.12371   1.000
    O337    O    0.96262   0.16566   0.12491   1.000
    O338    O    0.92279   0.17981   0.11178   1.000
    O339    O    0.87992   0.33880   0.12442   1.000
    C897    C    0.94598   0.18265   0.11942   1.000
    C898    C    0.95456   0.21110   0.12206   1.000
    C899    C    0.97985   0.25067   0.12438   1.000
    C900    C    0.95318   0.25777   0.12414   1.000
    C901    C    0.94605   0.28455   0.12441   1.000
    C902    C    0.94056   0.23134   0.12070   1.000
    H337    H    0.92220   0.22990   0.11920   1.000
    S338    S    0.98948   0.21796   0.12334   1.000
    C903    C    0.97786   0.22177   0.12411   1.000
    H338    H    0.99300   0.21130   0.12550   1.000
    S339    S    0.92844   0.23539   0.12304   1.000
    C904    C    0.92283   0.30165   0.12367   1.000
    H339    H    0.90610   0.29380   0.12430   1.000
    S340    S    0.91302   0.79184   0.62371   1.000
    O340    O    0.96262   0.66566   0.62491   1.000
    O341    O    0.92279   0.67981   0.61178   1.000
    O342    O    0.87992   0.83880   0.62442   1.000
    C905    C    0.94598   0.68265   0.61942   1.000
    C906    C    0.95456   0.71110   0.62206   1.000
    C907    C    0.97985   0.75067   0.62438   1.000
    C908    C    0.95318   0.75777   0.62414   1.000
    C909    C    0.94605   0.78455   0.62441   1.000
    C910    C    0.94056   0.73134   0.62070   1.000
    H340    H    0.92220   0.72990   0.61920   1.000
    S341    S    0.98948   0.71796   0.62334   1.000
    C911    C    0.97786   0.72177   0.62411   1.000
    H341    H    0.99300   0.71130   0.62550   1.000
    S342    S    0.92844   0.73539   0.62304   1.000
    C912    C    0.92283   0.80165   0.62367   1.000
    H342    H    0.90610   0.79380   0.62430   1.000
    S343    S    0.41302   0.29184   0.62371   1.000
    O343    O    0.46262   0.16566   0.62491   1.000
    O344    O    0.42279   0.17981   0.61178   1.000
    O345    O    0.37992   0.33880   0.62442   1.000
    C913    C    0.44598   0.18265   0.61942   1.000
    C914    C    0.45456   0.21110   0.62206   1.000
    C915    C    0.47985   0.25067   0.62438   1.000
    C916    C    0.45318   0.25777   0.62414   1.000
    C917    C    0.44605   0.28455   0.62441   1.000
    C918    C    0.44056   0.23134   0.62070   1.000
    H343    H    0.42220   0.22990   0.61920   1.000
    S344    S    0.48948   0.21796   0.62334   1.000
    C919    C    0.47786   0.22177   0.62411   1.000
    H344    H    0.49300   0.21130   0.62550   1.000
    S345    S    0.42844   0.23539   0.62304   1.000
    C920    C    0.42283   0.30165   0.62367   1.000
    H345    H    0.40610   0.29380   0.62430   1.000
    S346    S    0.41302   0.79184   0.12371   1.000
    O346    O    0.46262   0.66566   0.12491   1.000
    O347    O    0.42279   0.67981   0.11178   1.000
    O348    O    0.37992   0.83880   0.12442   1.000
    C921    C    0.44598   0.68265   0.11942   1.000
    C922    C    0.45456   0.71110   0.12206   1.000
    C923    C    0.47985   0.75067   0.12438   1.000
    C924    C    0.45318   0.75777   0.12414   1.000
    C925    C    0.44605   0.78455   0.12441   1.000
    C926    C    0.44056   0.73134   0.12070   1.000
    H346    H    0.42220   0.72990   0.11920   1.000
    S347    S    0.48948   0.71796   0.12334   1.000
    C927    C    0.47786   0.72177   0.12411   1.000
    H347    H    0.49300   0.71130   0.12550   1.000
    S348    S    0.42844   0.73539   0.12304   1.000
    C928    C    0.42283   0.80165   0.12367   1.000
    H348    H    0.40610   0.79380   0.12430   1.000
    S349    S    0.41302   0.95816   0.62629   1.000
    O349    O    0.46262   0.08434   0.62509   1.000
    O350    O    0.42279   0.07019   0.63822   1.000
    O351    O    0.37992   0.91120   0.62558   1.000
    C929    C    0.44598   0.06735   0.63058   1.000
    C930    C    0.45456   0.03890   0.62794   1.000
    C931    C    0.47985   0.99933   0.62562   1.000
    C932    C    0.45318   0.99223   0.62586   1.000
    C933    C    0.44605   0.96545   0.62559   1.000
    C934    C    0.44056   0.01866   0.62930   1.000
    H349    H    0.42220   0.02010   0.63080   1.000
    S350    S    0.48948   0.03204   0.62666   1.000
    C935    C    0.47786   0.02823   0.62589   1.000
    H350    H    0.49300   0.03870   0.62450   1.000
    S351    S    0.42844   0.01461   0.62696   1.000
    C936    C    0.42283   0.94835   0.62633   1.000
    H351    H    0.40610   0.95620   0.62570   1.000
    S352    S    0.41302   0.45816   0.12629   1.000
    O352    O    0.46262   0.58434   0.12509   1.000
    O353    O    0.42279   0.57019   0.13822   1.000
    O354    O    0.37992   0.41120   0.12558   1.000
    C937    C    0.44598   0.56735   0.13058   1.000
    C938    C    0.45456   0.53890   0.12794   1.000
    C939    C    0.47985   0.49933   0.12562   1.000
    C940    C    0.45318   0.49223   0.12586   1.000
    C941    C    0.44605   0.46545   0.12559   1.000
    C942    C    0.44056   0.51866   0.12930   1.000
    H352    H    0.42220   0.52010   0.13080   1.000
    S353    S    0.48948   0.53204   0.12666   1.000
    C943    C    0.47786   0.52823   0.12589   1.000
    H353    H    0.49300   0.53870   0.12450   1.000
    S354    S    0.42844   0.51461   0.12696   1.000
    C944    C    0.42283   0.44835   0.12633   1.000
    H354    H    0.40610   0.45620   0.12570   1.000
    S355    S    0.91302   0.95816   0.12629   1.000
    O355    O    0.96262   0.08434   0.12509   1.000
    O356    O    0.92279   0.07019   0.13822   1.000
    O357    O    0.87992   0.91120   0.12558   1.000
    C945    C    0.94598   0.06735   0.13058   1.000
    C946    C    0.95456   0.03890   0.12794   1.000
    C947    C    0.97985   0.99933   0.12562   1.000
    C948    C    0.95318   0.99223   0.12586   1.000
    C949    C    0.94605   0.96545   0.12559   1.000
    C950    C    0.94056   0.01866   0.12930   1.000
    H355    H    0.92220   0.02010   0.13080   1.000
    S356    S    0.98948   0.03204   0.12666   1.000
    C951    C    0.97786   0.02823   0.12589   1.000
    H356    H    0.99300   0.03870   0.12450   1.000
    S357    S    0.92844   0.01461   0.12696   1.000
    C952    C    0.92283   0.94835   0.12633   1.000
    H357    H    0.90610   0.95620   0.12570   1.000
    S358    S    0.91302   0.45816   0.62629   1.000
    O358    O    0.96262   0.58434   0.62509   1.000
    O359    O    0.92279   0.57019   0.63822   1.000
    O360    O    0.87992   0.41120   0.62558   1.000
    C953    C    0.94598   0.56735   0.63058   1.000
    C954    C    0.95456   0.53890   0.62794   1.000
    C955    C    0.97985   0.49933   0.62562   1.000
    C956    C    0.95318   0.49223   0.62586   1.000
    C957    C    0.94605   0.46545   0.62559   1.000
    C958    C    0.94056   0.51866   0.62930   1.000
    H358    H    0.92220   0.52010   0.63080   1.000
    S359    S    0.98948   0.53204   0.62666   1.000
    C959    C    0.97786   0.52823   0.62589   1.000
    H359    H    0.99300   0.53870   0.62450   1.000
    S360    S    0.92844   0.51461   0.62696   1.000
    C960    C    0.92283   0.44835   0.62633   1.000
    H360    H    0.90610   0.45620   0.62570   1.000
    S361    S    0.33698   0.45816   0.62371   1.000
    O361    O    0.28738   0.58434   0.62491   1.000
    O362    O    0.32721   0.57019   0.61178   1.000
    O363    O    0.37008   0.41120   0.62442   1.000
    C961    C    0.30402   0.56735   0.61942   1.000
    C962    C    0.29544   0.53890   0.62206   1.000
    C963    C    0.27015   0.49933   0.62438   1.000
    C964    C    0.29682   0.49223   0.62414   1.000
    C965    C    0.30395   0.46545   0.62441   1.000
    C966    C    0.30944   0.51866   0.62070   1.000
    H361    H    0.32780   0.52010   0.61920   1.000
    S362    S    0.26052   0.53204   0.62334   1.000
    C967    C    0.27214   0.52823   0.62411   1.000
    H362    H    0.25700   0.53870   0.62550   1.000
    S363    S    0.32156   0.51461   0.62304   1.000
    C968    C    0.32717   0.44835   0.62367   1.000
    H363    H    0.34390   0.45620   0.62430   1.000
    S364    S    0.33698   0.95816   0.12371   1.000
    O364    O    0.28738   0.08434   0.12491   1.000
    O365    O    0.32721   0.07019   0.11178   1.000
    O366    O    0.37008   0.91120   0.12442   1.000
    C969    C    0.30402   0.06735   0.11942   1.000
    C970    C    0.29544   0.03890   0.12206   1.000
    C971    C    0.27015   0.99933   0.12438   1.000
    C972    C    0.29682   0.99223   0.12414   1.000
    C973    C    0.30395   0.96545   0.12441   1.000
    C974    C    0.30944   0.01866   0.12070   1.000
    H364    H    0.32780   0.02010   0.11920   1.000
    S365    S    0.26052   0.03204   0.12334   1.000
    C975    C    0.27214   0.02823   0.12411   1.000
    H365    H    0.25700   0.03870   0.12550   1.000
    S366    S    0.32156   0.01461   0.12304   1.000
    C976    C    0.32717   0.94835   0.12367   1.000
    H366    H    0.34390   0.95620   0.12430   1.000
    S367    S    0.83698   0.45816   0.12371   1.000
    O367    O    0.78738   0.58434   0.12491   1.000
    O368    O    0.82721   0.57019   0.11178   1.000
    O369    O    0.87008   0.41120   0.12442   1.000
    C977    C    0.80402   0.56735   0.11942   1.000
    C978    C    0.79544   0.53890   0.12206   1.000
    C979    C    0.77015   0.49933   0.12438   1.000
    C980    C    0.79682   0.49223   0.12414   1.000
    C981    C    0.80395   0.46545   0.12441   1.000
    C982    C    0.80944   0.51866   0.12070   1.000
    H367    H    0.82780   0.52010   0.11920   1.000
    S368    S    0.76052   0.53204   0.12334   1.000
    C983    C    0.77214   0.52823   0.12411   1.000
    H368    H    0.75700   0.53870   0.12550   1.000
    S369    S    0.82156   0.51461   0.12304   1.000
    C984    C    0.82717   0.44835   0.12367   1.000
    H369    H    0.84390   0.45620   0.12430   1.000
    S370    S    0.83698   0.95816   0.62371   1.000
    O370    O    0.78738   0.08434   0.62491   1.000
    O371    O    0.82721   0.07019   0.61178   1.000
    O372    O    0.87008   0.91120   0.62442   1.000
    C985    C    0.80402   0.06735   0.61942   1.000
    C986    C    0.79544   0.03890   0.62206   1.000
    C987    C    0.77015   0.99933   0.62438   1.000
    C988    C    0.79682   0.99223   0.62414   1.000
    C989    C    0.80395   0.96545   0.62441   1.000
    C990    C    0.80944   0.01866   0.62070   1.000
    H370    H    0.82780   0.02010   0.61920   1.000
    S371    S    0.76052   0.03204   0.62334   1.000
    C991    C    0.77214   0.02823   0.62411   1.000
    H371    H    0.75700   0.03870   0.62550   1.000
    S372    S    0.82156   0.01461   0.62304   1.000
    C992    C    0.82717   0.94835   0.62367   1.000
    H372    H    0.84390   0.95620   0.62430   1.000
    S373    S    0.83698   0.79184   0.12629   1.000
    O373    O    0.78738   0.66566   0.12509   1.000
    O374    O    0.82721   0.67981   0.13822   1.000
    O375    O    0.87008   0.83880   0.12558   1.000
    C993    C    0.80402   0.68265   0.13058   1.000
    C994    C    0.79544   0.71110   0.12794   1.000
    C995    C    0.77015   0.75067   0.12562   1.000
    C996    C    0.79682   0.75777   0.12586   1.000
    C997    C    0.80395   0.78455   0.12559   1.000
    C998    C    0.80944   0.73134   0.12930   1.000
    H373    H    0.82780   0.72990   0.13080   1.000
    S374    S    0.76052   0.71796   0.12666   1.000
    C999    C    0.77214   0.72177   0.12589   1.000
    H374    H    0.75700   0.71130   0.12450   1.000
    S375    S    0.82156   0.73539   0.12696   1.000
    C1000   C    0.82717   0.80165   0.12633   1.000
    H375    H    0.84390   0.79380   0.12570   1.000
    S376    S    0.83698   0.29184   0.62629   1.000
    O376    O    0.78738   0.16566   0.62509   1.000
    O377    O    0.82721   0.17981   0.63822   1.000
    O378    O    0.87008   0.33880   0.62558   1.000
    C1001   C    0.80402   0.18265   0.63058   1.000
    C1002   C    0.79544   0.21110   0.62794   1.000
    C1003   C    0.77015   0.25067   0.62562   1.000
    C1004   C    0.79682   0.25777   0.62586   1.000
    C1005   C    0.80395   0.28455   0.62559   1.000
    C1006   C    0.80944   0.23134   0.62930   1.000
    H376    H    0.82780   0.22990   0.63080   1.000
    S377    S    0.76052   0.21796   0.62666   1.000
    C1007   C    0.77214   0.22177   0.62589   1.000
    H377    H    0.75700   0.21130   0.62450   1.000
    S378    S    0.82156   0.23539   0.62696   1.000
    C1008   C    0.82717   0.30165   0.62633   1.000
    H378    H    0.84390   0.29380   0.62570   1.000
    S379    S    0.33698   0.79184   0.62629   1.000
    O379    O    0.28738   0.66566   0.62509   1.000
    O380    O    0.32721   0.67981   0.63822   1.000
    O381    O    0.37008   0.83880   0.62558   1.000
    C1009   C    0.30402   0.68265   0.63058   1.000
    C1010   C    0.29544   0.71110   0.62794   1.000
    C1011   C    0.27015   0.75067   0.62562   1.000
    C1012   C    0.29682   0.75777   0.62586   1.000
    C1013   C    0.30395   0.78455   0.62559   1.000
    C1014   C    0.30944   0.73134   0.62930   1.000
    H379    H    0.32780   0.72990   0.63080   1.000
    S380    S    0.26052   0.71796   0.62666   1.000
    C1015   C    0.27214   0.72177   0.62589   1.000
    H380    H    0.25700   0.71130   0.62450   1.000
    S381    S    0.32156   0.73539   0.62696   1.000
    C1016   C    0.32717   0.80165   0.62633   1.000
    H381    H    0.34390   0.79380   0.62570   1.000
    S382    S    0.33698   0.29184   0.12629   1.000
    O382    O    0.28738   0.16566   0.12509   1.000
    O383    O    0.32721   0.17981   0.13822   1.000
    O384    O    0.37008   0.33880   0.12558   1.000
    C1017   C    0.30402   0.18265   0.13058   1.000
    C1018   C    0.29544   0.21110   0.12794   1.000
    C1019   C    0.27015   0.25067   0.12562   1.000
    C1020   C    0.29682   0.25777   0.12586   1.000
    C1021   C    0.30395   0.28455   0.12559   1.000
    C1022   C    0.30944   0.23134   0.12930   1.000
    H382    H    0.32780   0.22990   0.13080   1.000
    S383    S    0.26052   0.21796   0.12666   1.000
    C1023   C    0.27214   0.22177   0.12589   1.000
    H383    H    0.25700   0.21130   0.12450   1.000
    S384    S    0.32156   0.23539   0.12696   1.000
    C1024   C    0.32717   0.30165   0.12633   1.000
    H384    H    0.34390   0.29380   0.12570   1.000
    S385    S    0.12371   0.91302   0.29184   1.000
    O385    O    0.12491   0.96262   0.16566   1.000
    O386    O    0.11178   0.92279   0.17981   1.000
    O387    O    0.12442   0.87992   0.33880   1.000
    C1025   C    0.11942   0.94598   0.18265   1.000
    C1026   C    0.12206   0.95456   0.21110   1.000
    C1027   C    0.12438   0.97985   0.25067   1.000
    C1028   C    0.12414   0.95318   0.25777   1.000
    C1029   C    0.12441   0.94605   0.28455   1.000
    C1030   C    0.12070   0.94056   0.23134   1.000
    H385    H    0.11920   0.92220   0.22990   1.000
    S386    S    0.12334   0.98948   0.21796   1.000
    C1031   C    0.12411   0.97786   0.22177   1.000
    H386    H    0.12550   0.99300   0.21130   1.000
    S387    S    0.12304   0.92844   0.23539   1.000
    C1032   C    0.12367   0.92283   0.30165   1.000
    H387    H    0.12430   0.90610   0.29380   1.000
    S388    S    0.12371   0.41302   0.79184   1.000
    O388    O    0.12491   0.46262   0.66566   1.000
    O389    O    0.11178   0.42279   0.67981   1.000
    O390    O    0.12442   0.37992   0.83880   1.000
    C1033   C    0.11942   0.44598   0.68265   1.000
    C1034   C    0.12206   0.45456   0.71110   1.000
    C1035   C    0.12438   0.47985   0.75067   1.000
    C1036   C    0.12414   0.45318   0.75777   1.000
    C1037   C    0.12441   0.44605   0.78455   1.000
    C1038   C    0.12070   0.44056   0.73134   1.000
    H388    H    0.11920   0.42220   0.72990   1.000
    S389    S    0.12334   0.48948   0.71796   1.000
    C1039   C    0.12411   0.47786   0.72177   1.000
    H389    H    0.12550   0.49300   0.71130   1.000
    S390    S    0.12304   0.42844   0.73539   1.000
    C1040   C    0.12367   0.42283   0.80165   1.000
    H390    H    0.12430   0.40610   0.79380   1.000
    S391    S    0.62371   0.91302   0.79184   1.000
    O391    O    0.62491   0.96262   0.66566   1.000
    O392    O    0.61178   0.92279   0.67981   1.000
    O393    O    0.62442   0.87992   0.83880   1.000
    C1041   C    0.61942   0.94598   0.68265   1.000
    C1042   C    0.62206   0.95456   0.71110   1.000
    C1043   C    0.62438   0.97985   0.75067   1.000
    C1044   C    0.62414   0.95318   0.75777   1.000
    C1045   C    0.62441   0.94605   0.78455   1.000
    C1046   C    0.62070   0.94056   0.73134   1.000
    H391    H    0.61920   0.92220   0.72990   1.000
    S392    S    0.62334   0.98948   0.71796   1.000
    C1047   C    0.62411   0.97786   0.72177   1.000
    H392    H    0.62550   0.99300   0.71130   1.000
    S393    S    0.62304   0.92844   0.73539   1.000
    C1048   C    0.62367   0.92283   0.80165   1.000
    H393    H    0.62430   0.90610   0.79380   1.000
    S394    S    0.62371   0.41302   0.29184   1.000
    O394    O    0.62491   0.46262   0.16566   1.000
    O395    O    0.61178   0.42279   0.17981   1.000
    O396    O    0.62442   0.37992   0.33880   1.000
    C1049   C    0.61942   0.44598   0.18265   1.000
    C1050   C    0.62206   0.45456   0.21110   1.000
    C1051   C    0.62438   0.47985   0.25067   1.000
    C1052   C    0.62414   0.45318   0.25777   1.000
    C1053   C    0.62441   0.44605   0.28455   1.000
    C1054   C    0.62070   0.44056   0.23134   1.000
    H394    H    0.61920   0.42220   0.22990   1.000
    S395    S    0.62334   0.48948   0.21796   1.000
    C1055   C    0.62411   0.47786   0.22177   1.000
    H395    H    0.62550   0.49300   0.21130   1.000
    S396    S    0.62304   0.42844   0.23539   1.000
    C1056   C    0.62367   0.42283   0.30165   1.000
    H396    H    0.62430   0.40610   0.29380   1.000
    S397    S    0.62629   0.41302   0.95816   1.000
    O397    O    0.62509   0.46262   0.08434   1.000
    O398    O    0.63822   0.42279   0.07019   1.000
    O399    O    0.62558   0.37992   0.91120   1.000
    C1057   C    0.63058   0.44598   0.06735   1.000
    C1058   C    0.62794   0.45456   0.03890   1.000
    C1059   C    0.62562   0.47985   0.99933   1.000
    C1060   C    0.62586   0.45318   0.99223   1.000
    C1061   C    0.62559   0.44605   0.96545   1.000
    C1062   C    0.62930   0.44056   0.01866   1.000
    H397    H    0.63080   0.42220   0.02010   1.000
    S398    S    0.62666   0.48948   0.03204   1.000
    C1063   C    0.62589   0.47786   0.02823   1.000
    H398    H    0.62450   0.49300   0.03870   1.000
    S399    S    0.62696   0.42844   0.01461   1.000
    C1064   C    0.62633   0.42283   0.94835   1.000
    H399    H    0.62570   0.40610   0.95620   1.000
    S400    S    0.62629   0.91302   0.45816   1.000
    O400    O    0.62509   0.96262   0.58434   1.000
    O401    O    0.63822   0.92279   0.57019   1.000
    O402    O    0.62558   0.87992   0.41120   1.000
    C1065   C    0.63058   0.94598   0.56735   1.000
    C1066   C    0.62794   0.95456   0.53890   1.000
    C1067   C    0.62562   0.97985   0.49933   1.000
    C1068   C    0.62586   0.95318   0.49223   1.000
    C1069   C    0.62559   0.94605   0.46545   1.000
    C1070   C    0.62930   0.94056   0.51866   1.000
    H400    H    0.63080   0.92220   0.52010   1.000
    S401    S    0.62666   0.98948   0.53204   1.000
    C1071   C    0.62589   0.97786   0.52823   1.000
    H401    H    0.62450   0.99300   0.53870   1.000
    S402    S    0.62696   0.92844   0.51461   1.000
    C1072   C    0.62633   0.92283   0.44835   1.000
    H402    H    0.62570   0.90610   0.45620   1.000
    S403    S    0.12629   0.41302   0.45816   1.000
    O403    O    0.12509   0.46262   0.58434   1.000
    O404    O    0.13822   0.42279   0.57019   1.000
    O405    O    0.12558   0.37992   0.41120   1.000
    C1073   C    0.13058   0.44598   0.56735   1.000
    C1074   C    0.12794   0.45456   0.53890   1.000
    C1075   C    0.12562   0.47985   0.49933   1.000
    C1076   C    0.12586   0.45318   0.49223   1.000
    C1077   C    0.12559   0.44605   0.46545   1.000
    C1078   C    0.12930   0.44056   0.51866   1.000
    H403    H    0.13080   0.42220   0.52010   1.000
    S404    S    0.12666   0.48948   0.53204   1.000
    C1079   C    0.12589   0.47786   0.52823   1.000
    H404    H    0.12450   0.49300   0.53870   1.000
    S405    S    0.12696   0.42844   0.51461   1.000
    C1080   C    0.12633   0.42283   0.44835   1.000
    H405    H    0.12570   0.40610   0.45620   1.000
    S406    S    0.12629   0.91302   0.95816   1.000
    O406    O    0.12509   0.96262   0.08434   1.000
    O407    O    0.13822   0.92279   0.07019   1.000
    O408    O    0.12558   0.87992   0.91120   1.000
    C1081   C    0.13058   0.94598   0.06735   1.000
    C1082   C    0.12794   0.95456   0.03890   1.000
    C1083   C    0.12562   0.97985   0.99933   1.000
    C1084   C    0.12586   0.95318   0.99223   1.000
    C1085   C    0.12559   0.94605   0.96545   1.000
    C1086   C    0.12930   0.94056   0.01866   1.000
    H406    H    0.13080   0.92220   0.02010   1.000
    S407    S    0.12666   0.98948   0.03204   1.000
    C1087   C    0.12589   0.97786   0.02823   1.000
    H407    H    0.12450   0.99300   0.03870   1.000
    S408    S    0.12696   0.92844   0.01461   1.000
    C1088   C    0.12633   0.92283   0.94835   1.000
    H408    H    0.12570   0.90610   0.95620   1.000
    S409    S    0.62371   0.33698   0.45816   1.000
    O409    O    0.62491   0.28738   0.58434   1.000
    O410    O    0.61178   0.32721   0.57019   1.000
    O411    O    0.62442   0.37008   0.41120   1.000
    C1089   C    0.61942   0.30402   0.56735   1.000
    C1090   C    0.62206   0.29544   0.53890   1.000
    C1091   C    0.62438   0.27015   0.49933   1.000
    C1092   C    0.62414   0.29682   0.49223   1.000
    C1093   C    0.62441   0.30395   0.46545   1.000
    C1094   C    0.62070   0.30944   0.51866   1.000
    H409    H    0.61920   0.32780   0.52010   1.000
    S410    S    0.62334   0.26052   0.53204   1.000
    C1095   C    0.62411   0.27214   0.52823   1.000
    H410    H    0.62550   0.25700   0.53870   1.000
    S411    S    0.62304   0.32156   0.51461   1.000
    C1096   C    0.62367   0.32717   0.44835   1.000
    H411    H    0.62430   0.34390   0.45620   1.000
    S412    S    0.62371   0.83698   0.95816   1.000
    O412    O    0.62491   0.78738   0.08434   1.000
    O413    O    0.61178   0.82721   0.07019   1.000
    O414    O    0.62442   0.87008   0.91120   1.000
    C1097   C    0.61942   0.80402   0.06735   1.000
    C1098   C    0.62206   0.79544   0.03890   1.000
    C1099   C    0.62438   0.77015   0.99933   1.000
    C1100   C    0.62414   0.79682   0.99223   1.000
    C1101   C    0.62441   0.80395   0.96545   1.000
    C1102   C    0.62070   0.80944   0.01866   1.000
    H412    H    0.61920   0.82780   0.02010   1.000
    S413    S    0.62334   0.76052   0.03204   1.000
    C1103   C    0.62411   0.77214   0.02823   1.000
    H413    H    0.62550   0.75700   0.03870   1.000
    S414    S    0.62304   0.82156   0.01461   1.000
    C1104   C    0.62367   0.82717   0.94835   1.000
    H414    H    0.62430   0.84390   0.95620   1.000
    S415    S    0.12371   0.33698   0.95816   1.000
    O415    O    0.12491   0.28738   0.08434   1.000
    O416    O    0.11178   0.32721   0.07019   1.000
    O417    O    0.12442   0.37008   0.91120   1.000
    C1105   C    0.11942   0.30402   0.06735   1.000
    C1106   C    0.12206   0.29544   0.03890   1.000
    C1107   C    0.12438   0.27015   0.99933   1.000
    C1108   C    0.12414   0.29682   0.99223   1.000
    C1109   C    0.12441   0.30395   0.96545   1.000
    C1110   C    0.12070   0.30944   0.01866   1.000
    H415    H    0.11920   0.32780   0.02010   1.000
    S416    S    0.12334   0.26052   0.03204   1.000
    C1111   C    0.12411   0.27214   0.02823   1.000
    H416    H    0.12550   0.25700   0.03870   1.000
    S417    S    0.12304   0.32156   0.01461   1.000
    C1112   C    0.12367   0.32717   0.94835   1.000
    H417    H    0.12430   0.34390   0.95620   1.000
    S418    S    0.12371   0.83698   0.45816   1.000
    O418    O    0.12491   0.78738   0.58434   1.000
    O419    O    0.11178   0.82721   0.57019   1.000
    O420    O    0.12442   0.87008   0.41120   1.000
    C1113   C    0.11942   0.80402   0.56735   1.000
    C1114   C    0.12206   0.79544   0.53890   1.000
    C1115   C    0.12438   0.77015   0.49933   1.000
    C1116   C    0.12414   0.79682   0.49223   1.000
    C1117   C    0.12441   0.80395   0.46545   1.000
    C1118   C    0.12070   0.80944   0.51866   1.000
    H418    H    0.11920   0.82780   0.52010   1.000
    S419    S    0.12334   0.76052   0.53204   1.000
    C1119   C    0.12411   0.77214   0.52823   1.000
    H419    H    0.12550   0.75700   0.53870   1.000
    S420    S    0.12304   0.82156   0.51461   1.000
    C1120   C    0.12367   0.82717   0.44835   1.000
    H420    H    0.12430   0.84390   0.45620   1.000
    S421    S    0.12629   0.83698   0.79184   1.000
    O421    O    0.12509   0.78738   0.66566   1.000
    O422    O    0.13822   0.82721   0.67981   1.000
    O423    O    0.12558   0.87008   0.83880   1.000
    C1121   C    0.13058   0.80402   0.68265   1.000
    C1122   C    0.12794   0.79544   0.71110   1.000
    C1123   C    0.12562   0.77015   0.75067   1.000
    C1124   C    0.12586   0.79682   0.75777   1.000
    C1125   C    0.12559   0.80395   0.78455   1.000
    C1126   C    0.12930   0.80944   0.73134   1.000
    H421    H    0.13080   0.82780   0.72990   1.000
    S422    S    0.12666   0.76052   0.71796   1.000
    C1127   C    0.12589   0.77214   0.72177   1.000
    H422    H    0.12450   0.75700   0.71130   1.000
    S423    S    0.12696   0.82156   0.73539   1.000
    C1128   C    0.12633   0.82717   0.80165   1.000
    H423    H    0.12570   0.84390   0.79380   1.000
    S424    S    0.12629   0.33698   0.29184   1.000
    O424    O    0.12509   0.28738   0.16566   1.000
    O425    O    0.13822   0.32721   0.17981   1.000
    O426    O    0.12558   0.37008   0.33880   1.000
    C1129   C    0.13058   0.30402   0.18265   1.000
    C1130   C    0.12794   0.29544   0.21110   1.000
    C1131   C    0.12562   0.27015   0.25067   1.000
    C1132   C    0.12586   0.29682   0.25777   1.000
    C1133   C    0.12559   0.30395   0.28455   1.000
    C1134   C    0.12930   0.30944   0.23134   1.000
    H424    H    0.13080   0.32780   0.22990   1.000
    S425    S    0.12666   0.26052   0.21796   1.000
    C1135   C    0.12589   0.27214   0.22177   1.000
    H425    H    0.12450   0.25700   0.21130   1.000
    S426    S    0.12696   0.32156   0.23539   1.000
    C1136   C    0.12633   0.32717   0.30165   1.000
    H426    H    0.12570   0.34390   0.29380   1.000
    S427    S    0.62629   0.83698   0.29184   1.000
    O427    O    0.62509   0.78738   0.16566   1.000
    O428    O    0.63822   0.82721   0.17981   1.000
    O429    O    0.62558   0.87008   0.33880   1.000
    C1137   C    0.63058   0.80402   0.18265   1.000
    C1138   C    0.62794   0.79544   0.21110   1.000
    C1139   C    0.62562   0.77015   0.25067   1.000
    C1140   C    0.62586   0.79682   0.25777   1.000
    C1141   C    0.62559   0.80395   0.28455   1.000
    C1142   C    0.62930   0.80944   0.23134   1.000
    H427    H    0.63080   0.82780   0.22990   1.000
    S428    S    0.62666   0.76052   0.21796   1.000
    C1143   C    0.62589   0.77214   0.22177   1.000
    H428    H    0.62450   0.75700   0.21130   1.000
    S429    S    0.62696   0.82156   0.23539   1.000
    C1144   C    0.62633   0.82717   0.30165   1.000
    H429    H    0.62570   0.84390   0.29380   1.000
    S430    S    0.62629   0.33698   0.79184   1.000
    O430    O    0.62509   0.28738   0.66566   1.000
    O431    O    0.63822   0.32721   0.67981   1.000
    O432    O    0.62558   0.37008   0.83880   1.000
    C1145   C    0.63058   0.30402   0.68265   1.000
    C1146   C    0.62794   0.29544   0.71110   1.000
    C1147   C    0.62562   0.27015   0.75067   1.000
    C1148   C    0.62586   0.29682   0.75777   1.000
    C1149   C    0.62559   0.30395   0.78455   1.000
    C1150   C    0.62930   0.30944   0.73134   1.000
    H430    H    0.63080   0.32780   0.72990   1.000
    S431    S    0.62666   0.26052   0.71796   1.000
    C1151   C    0.62589   0.27214   0.72177   1.000
    H431    H    0.62450   0.25700   0.71130   1.000
    S432    S    0.62696   0.32156   0.73539   1.000
    C1152   C    0.62633   0.32717   0.80165   1.000
    H432    H    0.62570   0.34390   0.79380   1.000
    S433    S    0.37371   0.04184   0.58698   1.000
    O433    O    0.37491   0.91566   0.53738   1.000
    O434    O    0.36178   0.92981   0.57721   1.000
    O435    O    0.37442   0.08880   0.62008   1.000
    C1153   C    0.36942   0.93265   0.55402   1.000
    C1154   C    0.37206   0.96110   0.54544   1.000
    C1155   C    0.37438   0.00067   0.52015   1.000
    C1156   C    0.37414   0.00777   0.54682   1.000
    C1157   C    0.37441   0.03455   0.55395   1.000
    C1158   C    0.37070   0.98134   0.55944   1.000
    H433    H    0.36920   0.97990   0.57780   1.000
    S434    S    0.37334   0.96796   0.51052   1.000
    C1159   C    0.37411   0.97177   0.52214   1.000
    H434    H    0.37550   0.96130   0.50700   1.000
    S435    S    0.37304   0.98539   0.57156   1.000
    C1160   C    0.37367   0.05165   0.57717   1.000
    H435    H    0.37430   0.04380   0.59390   1.000
    S436    S    0.37371   0.54184   0.08698   1.000
    O436    O    0.37491   0.41566   0.03738   1.000
    O437    O    0.36178   0.42981   0.07721   1.000
    O438    O    0.37442   0.58880   0.12008   1.000
    C1161   C    0.36942   0.43265   0.05402   1.000
    C1162   C    0.37206   0.46110   0.04544   1.000
    C1163   C    0.37438   0.50067   0.02015   1.000
    C1164   C    0.37414   0.50777   0.04682   1.000
    C1165   C    0.37441   0.53455   0.05395   1.000
    C1166   C    0.37070   0.48134   0.05944   1.000
    H436    H    0.36920   0.47990   0.07780   1.000
    S437    S    0.37334   0.46796   0.01052   1.000
    C1167   C    0.37411   0.47177   0.02214   1.000
    H437    H    0.37550   0.46130   0.00700   1.000
    S438    S    0.37304   0.48539   0.07156   1.000
    C1168   C    0.37367   0.55165   0.07717   1.000
    H438    H    0.37430   0.54380   0.09390   1.000
    S439    S    0.87371   0.04184   0.08698   1.000
    O439    O    0.87491   0.91566   0.03738   1.000
    O440    O    0.86178   0.92981   0.07721   1.000
    O441    O    0.87442   0.08880   0.12008   1.000
    C1169   C    0.86942   0.93265   0.05402   1.000
    C1170   C    0.87206   0.96110   0.04544   1.000
    C1171   C    0.87438   0.00067   0.02015   1.000
    C1172   C    0.87414   0.00777   0.04682   1.000
    C1173   C    0.87441   0.03455   0.05395   1.000
    C1174   C    0.87070   0.98134   0.05944   1.000
    H439    H    0.86920   0.97990   0.07780   1.000
    S440    S    0.87334   0.96796   0.01052   1.000
    C1175   C    0.87411   0.97177   0.02214   1.000
    H440    H    0.87550   0.96130   0.00700   1.000
    S441    S    0.87304   0.98539   0.07156   1.000
    C1176   C    0.87367   0.05165   0.07717   1.000
    H441    H    0.87430   0.04380   0.09390   1.000
    S442    S    0.87371   0.54184   0.58698   1.000
    O442    O    0.87491   0.41566   0.53738   1.000
    O443    O    0.86178   0.42981   0.57721   1.000
    O444    O    0.87442   0.58880   0.62008   1.000
    C1177   C    0.86942   0.43265   0.55402   1.000
    C1178   C    0.87206   0.46110   0.54544   1.000
    C1179   C    0.87438   0.50067   0.52015   1.000
    C1180   C    0.87414   0.50777   0.54682   1.000
    C1181   C    0.87441   0.53455   0.55395   1.000
    C1182   C    0.87070   0.48134   0.55944   1.000
    H442    H    0.86920   0.47990   0.57780   1.000
    S443    S    0.87334   0.46796   0.51052   1.000
    C1183   C    0.87411   0.47177   0.52214   1.000
    H443    H    0.87550   0.46130   0.50700   1.000
    S444    S    0.87304   0.48539   0.57156   1.000
    C1184   C    0.87367   0.55165   0.57717   1.000
    H444    H    0.87430   0.54380   0.59390   1.000
    S445    S    0.87629   0.70816   0.08698   1.000
    O445    O    0.87509   0.83434   0.03738   1.000
    O446    O    0.88822   0.82019   0.07721   1.000
    O447    O    0.87558   0.66120   0.12008   1.000
    C1185   C    0.88058   0.81735   0.05402   1.000
    C1186   C    0.87794   0.78890   0.04544   1.000
    C1187   C    0.87562   0.74933   0.02015   1.000
    C1188   C    0.87586   0.74223   0.04682   1.000
    C1189   C    0.87559   0.71545   0.05395   1.000
    C1190   C    0.87930   0.76866   0.05944   1.000
    H445    H    0.88080   0.77010   0.07780   1.000
    S446    S    0.87666   0.78204   0.01052   1.000
    C1191   C    0.87589   0.77823   0.02214   1.000
    H446    H    0.87450   0.78870   0.00700   1.000
    S447    S    0.87696   0.76461   0.07156   1.000
    C1192   C    0.87633   0.69835   0.07717   1.000
    H447    H    0.87570   0.70620   0.09390   1.000
    S448    S    0.87629   0.20816   0.58698   1.000
    O448    O    0.87509   0.33434   0.53738   1.000
    O449    O    0.88822   0.32019   0.57721   1.000
    O450    O    0.87558   0.16120   0.62008   1.000
    C1193   C    0.88058   0.31735   0.55402   1.000
    C1194   C    0.87794   0.28890   0.54544   1.000
    C1195   C    0.87562   0.24933   0.52015   1.000
    C1196   C    0.87586   0.24223   0.54682   1.000
    C1197   C    0.87559   0.21545   0.55395   1.000
    C1198   C    0.87930   0.26866   0.55944   1.000
    H448    H    0.88080   0.27010   0.57780   1.000
    S449    S    0.87666   0.28204   0.51052   1.000
    C1199   C    0.87589   0.27823   0.52214   1.000
    H449    H    0.87450   0.28870   0.50700   1.000
    S450    S    0.87696   0.26461   0.57156   1.000
    C1200   C    0.87633   0.19835   0.57717   1.000
    H450    H    0.87570   0.20620   0.59390   1.000
    S451    S    0.37629   0.70816   0.58698   1.000
    O451    O    0.37509   0.83434   0.53738   1.000
    O452    O    0.38822   0.82019   0.57721   1.000
    O453    O    0.37558   0.66120   0.62008   1.000
    C1201   C    0.38058   0.81735   0.55402   1.000
    C1202   C    0.37794   0.78890   0.54544   1.000
    C1203   C    0.37562   0.74933   0.52015   1.000
    C1204   C    0.37586   0.74223   0.54682   1.000
    C1205   C    0.37559   0.71545   0.55395   1.000
    C1206   C    0.37930   0.76866   0.55944   1.000
    H451    H    0.38080   0.77010   0.57780   1.000
    S452    S    0.37666   0.78204   0.51052   1.000
    C1207   C    0.37589   0.77823   0.52214   1.000
    H452    H    0.37450   0.78870   0.50700   1.000
    S453    S    0.37696   0.76461   0.57156   1.000
    C1208   C    0.37633   0.69835   0.57717   1.000
    H453    H    0.37570   0.70620   0.59390   1.000
    S454    S    0.37629   0.20816   0.08698   1.000
    O454    O    0.37509   0.33434   0.03738   1.000
    O455    O    0.38822   0.32019   0.07721   1.000
    O456    O    0.37558   0.16120   0.12008   1.000
    C1209   C    0.38058   0.31735   0.05402   1.000
    C1210   C    0.37794   0.28890   0.04544   1.000
    C1211   C    0.37562   0.24933   0.02015   1.000
    C1212   C    0.37586   0.24223   0.04682   1.000
    C1213   C    0.37559   0.21545   0.05395   1.000
    C1214   C    0.37930   0.26866   0.05944   1.000
    H454    H    0.38080   0.27010   0.07780   1.000
    S455    S    0.37666   0.28204   0.01052   1.000
    C1215   C    0.37589   0.27823   0.02214   1.000
    H455    H    0.37450   0.28870   0.00700   1.000
    S456    S    0.37696   0.26461   0.07156   1.000
    C1216   C    0.37633   0.19835   0.07717   1.000
    H456    H    0.37570   0.20620   0.09390   1.000
    S457    S    0.87371   0.20816   0.16302   1.000
    O457    O    0.87491   0.33434   0.21262   1.000
    O458    O    0.86178   0.32019   0.17279   1.000
    O459    O    0.87442   0.16120   0.12992   1.000
    C1217   C    0.86942   0.31735   0.19598   1.000
    C1218   C    0.87206   0.28890   0.20456   1.000
    C1219   C    0.87438   0.24933   0.22985   1.000
    C1220   C    0.87414   0.24223   0.20318   1.000
    C1221   C    0.87441   0.21545   0.19605   1.000
    C1222   C    0.87070   0.26866   0.19056   1.000
    H457    H    0.86920   0.27010   0.17220   1.000
    S458    S    0.87334   0.28204   0.23948   1.000
    C1223   C    0.87411   0.27823   0.22786   1.000
    H458    H    0.87550   0.28870   0.24300   1.000
    S459    S    0.87304   0.26461   0.17844   1.000
    C1224   C    0.87367   0.19835   0.17283   1.000
    H459    H    0.87430   0.20620   0.15610   1.000
    S460    S    0.87371   0.70816   0.66302   1.000
    O460    O    0.87491   0.83434   0.71262   1.000
    O461    O    0.86178   0.82019   0.67279   1.000
    O462    O    0.87442   0.66120   0.62992   1.000
    C1225   C    0.86942   0.81735   0.69598   1.000
    C1226   C    0.87206   0.78890   0.70456   1.000
    C1227   C    0.87438   0.74933   0.72985   1.000
    C1228   C    0.87414   0.74223   0.70318   1.000
    C1229   C    0.87441   0.71545   0.69605   1.000
    C1230   C    0.87070   0.76866   0.69056   1.000
    H460    H    0.86920   0.77010   0.67220   1.000
    S461    S    0.87334   0.78204   0.73948   1.000
    C1231   C    0.87411   0.77823   0.72786   1.000
    H461    H    0.87550   0.78870   0.74300   1.000
    S462    S    0.87304   0.76461   0.67844   1.000
    C1232   C    0.87367   0.69835   0.67283   1.000
    H462    H    0.87430   0.70620   0.65610   1.000
    S463    S    0.37371   0.20816   0.66302   1.000
    O463    O    0.37491   0.33434   0.71262   1.000
    O464    O    0.36178   0.32019   0.67279   1.000
    O465    O    0.37442   0.16120   0.62992   1.000
    C1233   C    0.36942   0.31735   0.69598   1.000
    C1234   C    0.37206   0.28890   0.70456   1.000
    C1235   C    0.37438   0.24933   0.72985   1.000
    C1236   C    0.37414   0.24223   0.70318   1.000
    C1237   C    0.37441   0.21545   0.69605   1.000
    C1238   C    0.37070   0.26866   0.69056   1.000
    H463    H    0.36920   0.27010   0.67220   1.000
    S464    S    0.37334   0.28204   0.73948   1.000
    C1239   C    0.37411   0.27823   0.72786   1.000
    H464    H    0.37550   0.28870   0.74300   1.000
    S465    S    0.37304   0.26461   0.67844   1.000
    C1240   C    0.37367   0.19835   0.67283   1.000
    H465    H    0.37430   0.20620   0.65610   1.000
    S466    S    0.37371   0.70816   0.16302   1.000
    O466    O    0.37491   0.83434   0.21262   1.000
    O467    O    0.36178   0.82019   0.17279   1.000
    O468    O    0.37442   0.66120   0.12992   1.000
    C1241   C    0.36942   0.81735   0.19598   1.000
    C1242   C    0.37206   0.78890   0.20456   1.000
    C1243   C    0.37438   0.74933   0.22985   1.000
    C1244   C    0.37414   0.74223   0.20318   1.000
    C1245   C    0.37441   0.71545   0.19605   1.000
    C1246   C    0.37070   0.76866   0.19056   1.000
    H466    H    0.36920   0.77010   0.17220   1.000
    S467    S    0.37334   0.78204   0.23948   1.000
    C1247   C    0.37411   0.77823   0.22786   1.000
    H467    H    0.37550   0.78870   0.24300   1.000
    S468    S    0.37304   0.76461   0.17844   1.000
    C1248   C    0.37367   0.69835   0.17283   1.000
    H468    H    0.37430   0.70620   0.15610   1.000
    S469    S    0.37629   0.54184   0.66302   1.000
    O469    O    0.37509   0.41566   0.71262   1.000
    O470    O    0.38822   0.42981   0.67279   1.000
    O471    O    0.37558   0.58880   0.62992   1.000
    C1249   C    0.38058   0.43265   0.69598   1.000
    C1250   C    0.37794   0.46110   0.70456   1.000
    C1251   C    0.37562   0.50067   0.72985   1.000
    C1252   C    0.37586   0.50777   0.70318   1.000
    C1253   C    0.37559   0.53455   0.69605   1.000
    C1254   C    0.37930   0.48134   0.69056   1.000
    H469    H    0.38080   0.47990   0.67220   1.000
    S470    S    0.37666   0.46796   0.73948   1.000
    C1255   C    0.37589   0.47177   0.72786   1.000
    H470    H    0.37450   0.46130   0.74300   1.000
    S471    S    0.37696   0.48539   0.67844   1.000
    C1256   C    0.37633   0.55165   0.67283   1.000
    H471    H    0.37570   0.54380   0.65610   1.000
    S472    S    0.37629   0.04184   0.16302   1.000
    O472    O    0.37509   0.91566   0.21262   1.000
    O473    O    0.38822   0.92981   0.17279   1.000
    O474    O    0.37558   0.08880   0.12992   1.000
    C1257   C    0.38058   0.93265   0.19598   1.000
    C1258   C    0.37794   0.96110   0.20456   1.000
    C1259   C    0.37562   0.00067   0.22985   1.000
    C1260   C    0.37586   0.00777   0.20318   1.000
    C1261   C    0.37559   0.03455   0.19605   1.000
    C1262   C    0.37930   0.98134   0.19056   1.000
    H472    H    0.38080   0.97990   0.17220   1.000
    S473    S    0.37666   0.96796   0.23948   1.000
    C1263   C    0.37589   0.97177   0.22786   1.000
    H473    H    0.37450   0.96130   0.24300   1.000
    S474    S    0.37696   0.98539   0.17844   1.000
    C1264   C    0.37633   0.05165   0.17283   1.000
    H474    H    0.37570   0.04380   0.15610   1.000
    S475    S    0.87629   0.54184   0.16302   1.000
    O475    O    0.87509   0.41566   0.21262   1.000
    O476    O    0.88822   0.42981   0.17279   1.000
    O477    O    0.87558   0.58880   0.12992   1.000
    C1265   C    0.88058   0.43265   0.19598   1.000
    C1266   C    0.87794   0.46110   0.20456   1.000
    C1267   C    0.87562   0.50067   0.22985   1.000
    C1268   C    0.87586   0.50777   0.20318   1.000
    C1269   C    0.87559   0.53455   0.19605   1.000
    C1270   C    0.87930   0.48134   0.19056   1.000
    H475    H    0.88080   0.47990   0.17220   1.000
    S476    S    0.87666   0.46796   0.23948   1.000
    C1271   C    0.87589   0.47177   0.22786   1.000
    H476    H    0.87450   0.46130   0.24300   1.000
    S477    S    0.87696   0.48539   0.17844   1.000
    C1272   C    0.87633   0.55165   0.17283   1.000
    H477    H    0.87570   0.54380   0.15610   1.000
    S478    S    0.87629   0.04184   0.66302   1.000
    O478    O    0.87509   0.91566   0.71262   1.000
    O479    O    0.88822   0.92981   0.67279   1.000
    O480    O    0.87558   0.08880   0.62992   1.000
    C1273   C    0.88058   0.93265   0.69598   1.000
    C1274   C    0.87794   0.96110   0.70456   1.000
    C1275   C    0.87562   0.00067   0.72985   1.000
    C1276   C    0.87586   0.00777   0.70318   1.000
    C1277   C    0.87559   0.03455   0.69605   1.000
    C1278   C    0.87930   0.98134   0.69056   1.000
    H478    H    0.88080   0.97990   0.67220   1.000
    S479    S    0.87666   0.96796   0.73948   1.000
    C1279   C    0.87589   0.97177   0.72786   1.000
    H479    H    0.87450   0.96130   0.74300   1.000
    S480    S    0.87696   0.98539   0.67844   1.000
    C1280   C    0.87633   0.05165   0.67283   1.000
    H480    H    0.87570   0.04380   0.65610   1.000
    S481    S    0.54184   0.66302   0.37629   1.000
    O481    O    0.41566   0.71262   0.37509   1.000
    O482    O    0.42981   0.67279   0.38822   1.000
    O483    O    0.58880   0.62992   0.37558   1.000
    C1281   C    0.43265   0.69598   0.38058   1.000
    C1282   C    0.46110   0.70456   0.37794   1.000
    C1283   C    0.50067   0.72985   0.37562   1.000
    C1284   C    0.50777   0.70318   0.37586   1.000
    C1285   C    0.53455   0.69605   0.37559   1.000
    C1286   C    0.48134   0.69056   0.37930   1.000
    H481    H    0.47990   0.67220   0.38080   1.000
    S482    S    0.46796   0.73948   0.37666   1.000
    C1287   C    0.47177   0.72786   0.37589   1.000
    H482    H    0.46130   0.74300   0.37450   1.000
    S483    S    0.48539   0.67844   0.37696   1.000
    C1288   C    0.55165   0.67283   0.37633   1.000
    H483    H    0.54380   0.65610   0.37570   1.000
    S484    S    0.54184   0.16302   0.87629   1.000
    O484    O    0.41566   0.21262   0.87509   1.000
    O485    O    0.42981   0.17279   0.88822   1.000
    O486    O    0.58880   0.12992   0.87558   1.000
    C1289   C    0.43265   0.19598   0.88058   1.000
    C1290   C    0.46110   0.20456   0.87794   1.000
    C1291   C    0.50067   0.22985   0.87562   1.000
    C1292   C    0.50777   0.20318   0.87586   1.000
    C1293   C    0.53455   0.19605   0.87559   1.000
    C1294   C    0.48134   0.19056   0.87930   1.000
    H484    H    0.47990   0.17220   0.88080   1.000
    S485    S    0.46796   0.23948   0.87666   1.000
    C1295   C    0.47177   0.22786   0.87589   1.000
    H485    H    0.46130   0.24300   0.87450   1.000
    S486    S    0.48539   0.17844   0.87696   1.000
    C1296   C    0.55165   0.17283   0.87633   1.000
    H486    H    0.54380   0.15610   0.87570   1.000
    S487    S    0.04184   0.66302   0.87629   1.000
    O487    O    0.91566   0.71262   0.87509   1.000
    O488    O    0.92981   0.67279   0.88822   1.000
    O489    O    0.08880   0.62992   0.87558   1.000
    C1297   C    0.93265   0.69598   0.88058   1.000
    C1298   C    0.96110   0.70456   0.87794   1.000
    C1299   C    0.00067   0.72985   0.87562   1.000
    C1300   C    0.00777   0.70318   0.87586   1.000
    C1301   C    0.03455   0.69605   0.87559   1.000
    C1302   C    0.98134   0.69056   0.87930   1.000
    H487    H    0.97990   0.67220   0.88080   1.000
    S488    S    0.96796   0.73948   0.87666   1.000
    C1303   C    0.97177   0.72786   0.87589   1.000
    H488    H    0.96130   0.74300   0.87450   1.000
    S489    S    0.98539   0.67844   0.87696   1.000
    C1304   C    0.05165   0.67283   0.87633   1.000
    H489    H    0.04380   0.65610   0.87570   1.000
    S490    S    0.04184   0.16302   0.37629   1.000
    O490    O    0.91566   0.21262   0.37509   1.000
    O491    O    0.92981   0.17279   0.38822   1.000
    O492    O    0.08880   0.12992   0.37558   1.000
    C1305   C    0.93265   0.19598   0.38058   1.000
    C1306   C    0.96110   0.20456   0.37794   1.000
    C1307   C    0.00067   0.22985   0.37562   1.000
    C1308   C    0.00777   0.20318   0.37586   1.000
    C1309   C    0.03455   0.19605   0.37559   1.000
    C1310   C    0.98134   0.19056   0.37930   1.000
    H490    H    0.97990   0.17220   0.38080   1.000
    S491    S    0.96796   0.23948   0.37666   1.000
    C1311   C    0.97177   0.22786   0.37589   1.000
    H491    H    0.96130   0.24300   0.37450   1.000
    S492    S    0.98539   0.17844   0.37696   1.000
    C1312   C    0.05165   0.17283   0.37633   1.000
    H492    H    0.04380   0.15610   0.37570   1.000
    S493    S    0.20816   0.16302   0.87371   1.000
    O493    O    0.33434   0.21262   0.87491   1.000
    O494    O    0.32019   0.17279   0.86178   1.000
    O495    O    0.16120   0.12992   0.87442   1.000
    C1313   C    0.31735   0.19598   0.86942   1.000
    C1314   C    0.28890   0.20456   0.87206   1.000
    C1315   C    0.24933   0.22985   0.87438   1.000
    C1316   C    0.24223   0.20318   0.87414   1.000
    C1317   C    0.21545   0.19605   0.87441   1.000
    C1318   C    0.26866   0.19056   0.87070   1.000
    H493    H    0.27010   0.17220   0.86920   1.000
    S494    S    0.28204   0.23948   0.87334   1.000
    C1319   C    0.27823   0.22786   0.87411   1.000
    H494    H    0.28870   0.24300   0.87550   1.000
    S495    S    0.26461   0.17844   0.87304   1.000
    C1320   C    0.19835   0.17283   0.87367   1.000
    H495    H    0.20620   0.15610   0.87430   1.000
    S496    S    0.20816   0.66302   0.37371   1.000
    O496    O    0.33434   0.71262   0.37491   1.000
    O497    O    0.32019   0.67279   0.36178   1.000
    O498    O    0.16120   0.62992   0.37442   1.000
    C1321   C    0.31735   0.69598   0.36942   1.000
    C1322   C    0.28890   0.70456   0.37206   1.000
    C1323   C    0.24933   0.72985   0.37438   1.000
    C1324   C    0.24223   0.70318   0.37414   1.000
    C1325   C    0.21545   0.69605   0.37441   1.000
    C1326   C    0.26866   0.69056   0.37070   1.000
    H496    H    0.27010   0.67220   0.36920   1.000
    S497    S    0.28204   0.73948   0.37334   1.000
    C1327   C    0.27823   0.72786   0.37411   1.000
    H497    H    0.28870   0.74300   0.37550   1.000
    S498    S    0.26461   0.67844   0.37304   1.000
    C1328   C    0.19835   0.67283   0.37367   1.000
    H498    H    0.20620   0.65610   0.37430   1.000
    S499    S    0.70816   0.16302   0.37371   1.000
    O499    O    0.83434   0.21262   0.37491   1.000
    O500    O    0.82019   0.17279   0.36178   1.000
    O501    O    0.66120   0.12992   0.37442   1.000
    C1329   C    0.81735   0.19598   0.36942   1.000
    C1330   C    0.78890   0.20456   0.37206   1.000
    C1331   C    0.74933   0.22985   0.37438   1.000
    C1332   C    0.74223   0.20318   0.37414   1.000
    C1333   C    0.71545   0.19605   0.37441   1.000
    C1334   C    0.76866   0.19056   0.37070   1.000
    H499    H    0.77010   0.17220   0.36920   1.000
    S500    S    0.78204   0.23948   0.37334   1.000
    C1335   C    0.77823   0.22786   0.37411   1.000
    H500    H    0.78870   0.24300   0.37550   1.000
    S501    S    0.76461   0.17844   0.37304   1.000
    C1336   C    0.69835   0.17283   0.37367   1.000
    H501    H    0.70620   0.15610   0.37430   1.000
    S502    S    0.70816   0.66302   0.87371   1.000
    O502    O    0.83434   0.71262   0.87491   1.000
    O503    O    0.82019   0.67279   0.86178   1.000
    O504    O    0.66120   0.62992   0.87442   1.000
    C1337   C    0.81735   0.69598   0.86942   1.000
    C1338   C    0.78890   0.70456   0.87206   1.000
    C1339   C    0.74933   0.72985   0.87438   1.000
    C1340   C    0.74223   0.70318   0.87414   1.000
    C1341   C    0.71545   0.69605   0.87441   1.000
    C1342   C    0.76866   0.69056   0.87070   1.000
    H502    H    0.77010   0.67220   0.86920   1.000
    S503    S    0.78204   0.73948   0.87334   1.000
    C1343   C    0.77823   0.72786   0.87411   1.000
    H503    H    0.78870   0.74300   0.87550   1.000
    S504    S    0.76461   0.67844   0.87304   1.000
    C1344   C    0.69835   0.67283   0.87367   1.000
    H504    H    0.70620   0.65610   0.87430   1.000
    S505    S    0.70816   0.08698   0.87629   1.000
    O505    O    0.83434   0.03738   0.87509   1.000
    O506    O    0.82019   0.07721   0.88822   1.000
    O507    O    0.66120   0.12008   0.87558   1.000
    C1345   C    0.81735   0.05402   0.88058   1.000
    C1346   C    0.78890   0.04544   0.87794   1.000
    C1347   C    0.74933   0.02015   0.87562   1.000
    C1348   C    0.74223   0.04682   0.87586   1.000
    C1349   C    0.71545   0.05395   0.87559   1.000
    C1350   C    0.76866   0.05944   0.87930   1.000
    H505    H    0.77010   0.07780   0.88080   1.000
    S506    S    0.78204   0.01052   0.87666   1.000
    C1351   C    0.77823   0.02214   0.87589   1.000
    H506    H    0.78870   0.00700   0.87450   1.000
    S507    S    0.76461   0.07156   0.87696   1.000
    C1352   C    0.69835   0.07717   0.87633   1.000
    H507    H    0.70620   0.09390   0.87570   1.000
    S508    S    0.70816   0.58698   0.37629   1.000
    O508    O    0.83434   0.53738   0.37509   1.000
    O509    O    0.82019   0.57721   0.38822   1.000
    O510    O    0.66120   0.62008   0.37558   1.000
    C1353   C    0.81735   0.55402   0.38058   1.000
    C1354   C    0.78890   0.54544   0.37794   1.000
    C1355   C    0.74933   0.52015   0.37562   1.000
    C1356   C    0.74223   0.54682   0.37586   1.000
    C1357   C    0.71545   0.55395   0.37559   1.000
    C1358   C    0.76866   0.55944   0.37930   1.000
    H508    H    0.77010   0.57780   0.38080   1.000
    S509    S    0.78204   0.51052   0.37666   1.000
    C1359   C    0.77823   0.52214   0.37589   1.000
    H509    H    0.78870   0.50700   0.37450   1.000
    S510    S    0.76461   0.57156   0.37696   1.000
    C1360   C    0.69835   0.57717   0.37633   1.000
    H510    H    0.70620   0.59390   0.37570   1.000
    S511    S    0.20816   0.08698   0.37629   1.000
    O511    O    0.33434   0.03738   0.37509   1.000
    O512    O    0.32019   0.07721   0.38822   1.000
    O513    O    0.16120   0.12008   0.37558   1.000
    C1361   C    0.31735   0.05402   0.38058   1.000
    C1362   C    0.28890   0.04544   0.37794   1.000
    C1363   C    0.24933   0.02015   0.37562   1.000
    C1364   C    0.24223   0.04682   0.37586   1.000
    C1365   C    0.21545   0.05395   0.37559   1.000
    C1366   C    0.26866   0.05944   0.37930   1.000
    H511    H    0.27010   0.07780   0.38080   1.000
    S512    S    0.28204   0.01052   0.37666   1.000
    C1367   C    0.27823   0.02214   0.37589   1.000
    H512    H    0.28870   0.00700   0.37450   1.000
    S513    S    0.26461   0.07156   0.37696   1.000
    C1368   C    0.19835   0.07717   0.37633   1.000
    H513    H    0.20620   0.09390   0.37570   1.000
    S514    S    0.20816   0.58698   0.87629   1.000
    O514    O    0.33434   0.53738   0.87509   1.000
    O515    O    0.32019   0.57721   0.88822   1.000
    O516    O    0.16120   0.62008   0.87558   1.000
    C1369   C    0.31735   0.55402   0.88058   1.000
    C1370   C    0.28890   0.54544   0.87794   1.000
    C1371   C    0.24933   0.52015   0.87562   1.000
    C1372   C    0.24223   0.54682   0.87586   1.000
    C1373   C    0.21545   0.55395   0.87559   1.000
    C1374   C    0.26866   0.55944   0.87930   1.000
    H514    H    0.27010   0.57780   0.88080   1.000
    S515    S    0.28204   0.51052   0.87666   1.000
    C1375   C    0.27823   0.52214   0.87589   1.000
    H515    H    0.28870   0.50700   0.87450   1.000
    S516    S    0.26461   0.57156   0.87696   1.000
    C1376   C    0.19835   0.57717   0.87633   1.000
    H516    H    0.20620   0.59390   0.87570   1.000
    S517    S    0.04184   0.58698   0.37371   1.000
    O517    O    0.91566   0.53738   0.37491   1.000
    O518    O    0.92981   0.57721   0.36178   1.000
    O519    O    0.08880   0.62008   0.37442   1.000
    C1377   C    0.93265   0.55402   0.36942   1.000
    C1378   C    0.96110   0.54544   0.37206   1.000
    C1379   C    0.00067   0.52015   0.37438   1.000
    C1380   C    0.00777   0.54682   0.37414   1.000
    C1381   C    0.03455   0.55395   0.37441   1.000
    C1382   C    0.98134   0.55944   0.37070   1.000
    H517    H    0.97990   0.57780   0.36920   1.000
    S518    S    0.96796   0.51052   0.37334   1.000
    C1383   C    0.97177   0.52214   0.37411   1.000
    H518    H    0.96130   0.50700   0.37550   1.000
    S519    S    0.98539   0.57156   0.37304   1.000
    C1384   C    0.05165   0.57717   0.37367   1.000
    H519    H    0.04380   0.59390   0.37430   1.000
    S520    S    0.04184   0.08698   0.87371   1.000
    O520    O    0.91566   0.03738   0.87491   1.000
    O521    O    0.92981   0.07721   0.86178   1.000
    O522    O    0.08880   0.12008   0.87442   1.000
    C1385   C    0.93265   0.05402   0.86942   1.000
    C1386   C    0.96110   0.04544   0.87206   1.000
    C1387   C    0.00067   0.02015   0.87438   1.000
    C1388   C    0.00777   0.04682   0.87414   1.000
    C1389   C    0.03455   0.05395   0.87441   1.000
    C1390   C    0.98134   0.05944   0.87070   1.000
    H520    H    0.97990   0.07780   0.86920   1.000
    S521    S    0.96796   0.01052   0.87334   1.000
    C1391   C    0.97177   0.02214   0.87411   1.000
    H521    H    0.96130   0.00700   0.87550   1.000
    S522    S    0.98539   0.07156   0.87304   1.000
    C1392   C    0.05165   0.07717   0.87367   1.000
    H522    H    0.04380   0.09390   0.87430   1.000
    S523    S    0.54184   0.58698   0.87371   1.000
    O523    O    0.41566   0.53738   0.87491   1.000
    O524    O    0.42981   0.57721   0.86178   1.000
    O525    O    0.58880   0.62008   0.87442   1.000
    C1393   C    0.43265   0.55402   0.86942   1.000
    C1394   C    0.46110   0.54544   0.87206   1.000
    C1395   C    0.50067   0.52015   0.87438   1.000
    C1396   C    0.50777   0.54682   0.87414   1.000
    C1397   C    0.53455   0.55395   0.87441   1.000
    C1398   C    0.48134   0.55944   0.87070   1.000
    H523    H    0.47990   0.57780   0.86920   1.000
    S524    S    0.46796   0.51052   0.87334   1.000
    C1399   C    0.47177   0.52214   0.87411   1.000
    H524    H    0.46130   0.50700   0.87550   1.000
    S525    S    0.48539   0.57156   0.87304   1.000
    C1400   C    0.55165   0.57717   0.87367   1.000
    H525    H    0.54380   0.59390   0.87430   1.000
    S526    S    0.54184   0.08698   0.37371   1.000
    O526    O    0.41566   0.03738   0.37491   1.000
    O527    O    0.42981   0.07721   0.36178   1.000
    O528    O    0.58880   0.12008   0.37442   1.000
    C1401   C    0.43265   0.05402   0.36942   1.000
    C1402   C    0.46110   0.04544   0.37206   1.000
    C1403   C    0.50067   0.02015   0.37438   1.000
    C1404   C    0.50777   0.04682   0.37414   1.000
    C1405   C    0.53455   0.05395   0.37441   1.000
    C1406   C    0.48134   0.05944   0.37070   1.000
    H526    H    0.47990   0.07780   0.36920   1.000
    S527    S    0.46796   0.01052   0.37334   1.000
    C1407   C    0.47177   0.02214   0.37411   1.000
    H527    H    0.46130   0.00700   0.37550   1.000
    S528    S    0.48539   0.07156   0.37304   1.000
    C1408   C    0.55165   0.07717   0.37367   1.000
    H528    H    0.54380   0.09390   0.37430   1.000
    S529    S    0.16302   0.87371   0.20816   1.000
    O529    O    0.21262   0.87491   0.33434   1.000
    O530    O    0.17279   0.86178   0.32019   1.000
    O531    O    0.12992   0.87442   0.16120   1.000
    C1409   C    0.19598   0.86942   0.31735   1.000
    C1410   C    0.20456   0.87206   0.28890   1.000
    C1411   C    0.22985   0.87438   0.24933   1.000
    C1412   C    0.20318   0.87414   0.24223   1.000
    C1413   C    0.19605   0.87441   0.21545   1.000
    C1414   C    0.19056   0.87070   0.26866   1.000
    H529    H    0.17220   0.86920   0.27010   1.000
    S530    S    0.23948   0.87334   0.28204   1.000
    C1415   C    0.22786   0.87411   0.27823   1.000
    H530    H    0.24300   0.87550   0.28870   1.000
    S531    S    0.17844   0.87304   0.26461   1.000
    C1416   C    0.17283   0.87367   0.19835   1.000
    H531    H    0.15610   0.87430   0.20620   1.000
    S532    S    0.16302   0.37371   0.70816   1.000
    O532    O    0.21262   0.37491   0.83434   1.000
    O533    O    0.17279   0.36178   0.82019   1.000
    O534    O    0.12992   0.37442   0.66120   1.000
    C1417   C    0.19598   0.36942   0.81735   1.000
    C1418   C    0.20456   0.37206   0.78890   1.000
    C1419   C    0.22985   0.37438   0.74933   1.000
    C1420   C    0.20318   0.37414   0.74223   1.000
    C1421   C    0.19605   0.37441   0.71545   1.000
    C1422   C    0.19056   0.37070   0.76866   1.000
    H532    H    0.17220   0.36920   0.77010   1.000
    S533    S    0.23948   0.37334   0.78204   1.000
    C1423   C    0.22786   0.37411   0.77823   1.000
    H533    H    0.24300   0.37550   0.78870   1.000
    S534    S    0.17844   0.37304   0.76461   1.000
    C1424   C    0.17283   0.37367   0.69835   1.000
    H534    H    0.15610   0.37430   0.70620   1.000
    S535    S    0.66302   0.87371   0.70816   1.000
    O535    O    0.71262   0.87491   0.83434   1.000
    O536    O    0.67279   0.86178   0.82019   1.000
    O537    O    0.62992   0.87442   0.66120   1.000
    C1425   C    0.69598   0.86942   0.81735   1.000
    C1426   C    0.70456   0.87206   0.78890   1.000
    C1427   C    0.72985   0.87438   0.74933   1.000
    C1428   C    0.70318   0.87414   0.74223   1.000
    C1429   C    0.69605   0.87441   0.71545   1.000
    C1430   C    0.69056   0.87070   0.76866   1.000
    H535    H    0.67220   0.86920   0.77010   1.000
    S536    S    0.73948   0.87334   0.78204   1.000
    C1431   C    0.72786   0.87411   0.77823   1.000
    H536    H    0.74300   0.87550   0.78870   1.000
    S537    S    0.67844   0.87304   0.76461   1.000
    C1432   C    0.67283   0.87367   0.69835   1.000
    H537    H    0.65610   0.87430   0.70620   1.000
    S538    S    0.66302   0.37371   0.20816   1.000
    O538    O    0.71262   0.37491   0.33434   1.000
    O539    O    0.67279   0.36178   0.32019   1.000
    O540    O    0.62992   0.37442   0.16120   1.000
    C1433   C    0.69598   0.36942   0.31735   1.000
    C1434   C    0.70456   0.37206   0.28890   1.000
    C1435   C    0.72985   0.37438   0.24933   1.000
    C1436   C    0.70318   0.37414   0.24223   1.000
    C1437   C    0.69605   0.37441   0.21545   1.000
    C1438   C    0.69056   0.37070   0.26866   1.000
    H538    H    0.67220   0.36920   0.27010   1.000
    S539    S    0.73948   0.37334   0.28204   1.000
    C1439   C    0.72786   0.37411   0.27823   1.000
    H539    H    0.74300   0.37550   0.28870   1.000
    S540    S    0.67844   0.37304   0.26461   1.000
    C1440   C    0.67283   0.37367   0.19835   1.000
    H540    H    0.65610   0.37430   0.20620   1.000
    S541    S    0.66302   0.37629   0.54184   1.000
    O541    O    0.71262   0.37509   0.41566   1.000
    O542    O    0.67279   0.38822   0.42981   1.000
    O543    O    0.62992   0.37558   0.58880   1.000
    C1441   C    0.69598   0.38058   0.43265   1.000
    C1442   C    0.70456   0.37794   0.46110   1.000
    C1443   C    0.72985   0.37562   0.50067   1.000
    C1444   C    0.70318   0.37586   0.50777   1.000
    C1445   C    0.69605   0.37559   0.53455   1.000
    C1446   C    0.69056   0.37930   0.48134   1.000
    H541    H    0.67220   0.38080   0.47990   1.000
    S542    S    0.73948   0.37666   0.46796   1.000
    C1447   C    0.72786   0.37589   0.47177   1.000
    H542    H    0.74300   0.37450   0.46130   1.000
    S543    S    0.67844   0.37696   0.48539   1.000
    C1448   C    0.67283   0.37633   0.55165   1.000
    H543    H    0.65610   0.37570   0.54380   1.000
    S544    S    0.66302   0.87629   0.04184   1.000
    O544    O    0.71262   0.87509   0.91566   1.000
    O545    O    0.67279   0.88822   0.92981   1.000
    O546    O    0.62992   0.87558   0.08880   1.000
    C1449   C    0.69598   0.88058   0.93265   1.000
    C1450   C    0.70456   0.87794   0.96110   1.000
    C1451   C    0.72985   0.87562   0.00067   1.000
    C1452   C    0.70318   0.87586   0.00777   1.000
    C1453   C    0.69605   0.87559   0.03455   1.000
    C1454   C    0.69056   0.87930   0.98134   1.000
    H544    H    0.67220   0.88080   0.97990   1.000
    S545    S    0.73948   0.87666   0.96796   1.000
    C1455   C    0.72786   0.87589   0.97177   1.000
    H545    H    0.74300   0.87450   0.96130   1.000
    S546    S    0.67844   0.87696   0.98539   1.000
    C1456   C    0.67283   0.87633   0.05165   1.000
    H546    H    0.65610   0.87570   0.04380   1.000
    S547    S    0.16302   0.37629   0.04184   1.000
    O547    O    0.21262   0.37509   0.91566   1.000
    O548    O    0.17279   0.38822   0.92981   1.000
    O549    O    0.12992   0.37558   0.08880   1.000
    C1457   C    0.19598   0.38058   0.93265   1.000
    C1458   C    0.20456   0.37794   0.96110   1.000
    C1459   C    0.22985   0.37562   0.00067   1.000
    C1460   C    0.20318   0.37586   0.00777   1.000
    C1461   C    0.19605   0.37559   0.03455   1.000
    C1462   C    0.19056   0.37930   0.98134   1.000
    H547    H    0.17220   0.38080   0.97990   1.000
    S548    S    0.23948   0.37666   0.96796   1.000
    C1463   C    0.22786   0.37589   0.97177   1.000
    H548    H    0.24300   0.37450   0.96130   1.000
    S549    S    0.17844   0.37696   0.98539   1.000
    C1464   C    0.17283   0.37633   0.05165   1.000
    H549    H    0.15610   0.37570   0.04380   1.000
    S550    S    0.16302   0.87629   0.54184   1.000
    O550    O    0.21262   0.87509   0.41566   1.000
    O551    O    0.17279   0.88822   0.42981   1.000
    O552    O    0.12992   0.87558   0.58880   1.000
    C1465   C    0.19598   0.88058   0.43265   1.000
    C1466   C    0.20456   0.87794   0.46110   1.000
    C1467   C    0.22985   0.87562   0.50067   1.000
    C1468   C    0.20318   0.87586   0.50777   1.000
    C1469   C    0.19605   0.87559   0.53455   1.000
    C1470   C    0.19056   0.87930   0.48134   1.000
    H550    H    0.17220   0.88080   0.47990   1.000
    S551    S    0.23948   0.87666   0.46796   1.000
    C1471   C    0.22786   0.87589   0.47177   1.000
    H551    H    0.24300   0.87450   0.46130   1.000
    S552    S    0.17844   0.87696   0.48539   1.000
    C1472   C    0.17283   0.87633   0.55165   1.000
    H552    H    0.15610   0.87570   0.54380   1.000
    S553    S    0.58698   0.37371   0.04184   1.000
    O553    O    0.53738   0.37491   0.91566   1.000
    O554    O    0.57721   0.36178   0.92981   1.000
    O555    O    0.62008   0.37442   0.08880   1.000
    C1473   C    0.55402   0.36942   0.93265   1.000
    C1474   C    0.54544   0.37206   0.96110   1.000
    C1475   C    0.52015   0.37438   0.00067   1.000
    C1476   C    0.54682   0.37414   0.00777   1.000
    C1477   C    0.55395   0.37441   0.03455   1.000
    C1478   C    0.55944   0.37070   0.98134   1.000
    H553    H    0.57780   0.36920   0.97990   1.000
    S554    S    0.51052   0.37334   0.96796   1.000
    C1479   C    0.52214   0.37411   0.97177   1.000
    H554    H    0.50700   0.37550   0.96130   1.000
    S555    S    0.57156   0.37304   0.98539   1.000
    C1480   C    0.57717   0.37367   0.05165   1.000
    H555    H    0.59390   0.37430   0.04380   1.000
    S556    S    0.58698   0.87371   0.54184   1.000
    O556    O    0.53738   0.87491   0.41566   1.000
    O557    O    0.57721   0.86178   0.42981   1.000
    O558    O    0.62008   0.87442   0.58880   1.000
    C1481   C    0.55402   0.86942   0.43265   1.000
    C1482   C    0.54544   0.87206   0.46110   1.000
    C1483   C    0.52015   0.87438   0.50067   1.000
    C1484   C    0.54682   0.87414   0.50777   1.000
    C1485   C    0.55395   0.87441   0.53455   1.000
    C1486   C    0.55944   0.87070   0.48134   1.000
    H556    H    0.57780   0.86920   0.47990   1.000
    S557    S    0.51052   0.87334   0.46796   1.000
    C1487   C    0.52214   0.87411   0.47177   1.000
    H557    H    0.50700   0.87550   0.46130   1.000
    S558    S    0.57156   0.87304   0.48539   1.000
    C1488   C    0.57717   0.87367   0.55165   1.000
    H558    H    0.59390   0.87430   0.54380   1.000
    S559    S    0.08698   0.37371   0.54184   1.000
    O559    O    0.03738   0.37491   0.41566   1.000
    O560    O    0.07721   0.36178   0.42981   1.000
    O561    O    0.12008   0.37442   0.58880   1.000
    C1489   C    0.05402   0.36942   0.43265   1.000
    C1490   C    0.04544   0.37206   0.46110   1.000
    C1491   C    0.02015   0.37438   0.50067   1.000
    C1492   C    0.04682   0.37414   0.50777   1.000
    C1493   C    0.05395   0.37441   0.53455   1.000
    C1494   C    0.05944   0.37070   0.48134   1.000
    H559    H    0.07780   0.36920   0.47990   1.000
    S560    S    0.01052   0.37334   0.46796   1.000
    C1495   C    0.02214   0.37411   0.47177   1.000
    H560    H    0.00700   0.37550   0.46130   1.000
    S561    S    0.07156   0.37304   0.48539   1.000
    C1496   C    0.07717   0.37367   0.55165   1.000
    H561    H    0.09390   0.37430   0.54380   1.000
    S562    S    0.08698   0.87371   0.04184   1.000
    O562    O    0.03738   0.87491   0.91566   1.000
    O563    O    0.07721   0.86178   0.92981   1.000
    O564    O    0.12008   0.87442   0.08880   1.000
    C1497   C    0.05402   0.86942   0.93265   1.000
    C1498   C    0.04544   0.87206   0.96110   1.000
    C1499   C    0.02015   0.87438   0.00067   1.000
    C1500   C    0.04682   0.87414   0.00777   1.000
    C1501   C    0.05395   0.87441   0.03455   1.000
    C1502   C    0.05944   0.87070   0.98134   1.000
    H562    H    0.07780   0.86920   0.97990   1.000
    S563    S    0.01052   0.87334   0.96796   1.000
    C1503   C    0.02214   0.87411   0.97177   1.000
    H563    H    0.00700   0.87550   0.96130   1.000
    S564    S    0.07156   0.87304   0.98539   1.000
    C1504   C    0.07717   0.87367   0.05165   1.000
    H564    H    0.09390   0.87430   0.04380   1.000
    S565    S    0.08698   0.87629   0.70816   1.000
    O565    O    0.03738   0.87509   0.83434   1.000
    O566    O    0.07721   0.88822   0.82019   1.000
    O567    O    0.12008   0.87558   0.66120   1.000
    C1505   C    0.05402   0.88058   0.81735   1.000
    C1506   C    0.04544   0.87794   0.78890   1.000
    C1507   C    0.02015   0.87562   0.74933   1.000
    C1508   C    0.04682   0.87586   0.74223   1.000
    C1509   C    0.05395   0.87559   0.71545   1.000
    C1510   C    0.05944   0.87930   0.76866   1.000
    H565    H    0.07780   0.88080   0.77010   1.000
    S566    S    0.01052   0.87666   0.78204   1.000
    C1511   C    0.02214   0.87589   0.77823   1.000
    H566    H    0.00700   0.87450   0.78870   1.000
    S567    S    0.07156   0.87696   0.76461   1.000
    C1512   C    0.07717   0.87633   0.69835   1.000
    H567    H    0.09390   0.87570   0.70620   1.000
    S568    S    0.08698   0.37629   0.20816   1.000
    O568    O    0.03738   0.37509   0.33434   1.000
    O569    O    0.07721   0.38822   0.32019   1.000
    O570    O    0.12008   0.37558   0.16120   1.000
    C1513   C    0.05402   0.38058   0.31735   1.000
    C1514   C    0.04544   0.37794   0.28890   1.000
    C1515   C    0.02015   0.37562   0.24933   1.000
    C1516   C    0.04682   0.37586   0.24223   1.000
    C1517   C    0.05395   0.37559   0.21545   1.000
    C1518   C    0.05944   0.37930   0.26866   1.000
    H568    H    0.07780   0.38080   0.27010   1.000
    S569    S    0.01052   0.37666   0.28204   1.000
    C1519   C    0.02214   0.37589   0.27823   1.000
    H569    H    0.00700   0.37450   0.28870   1.000
    S570    S    0.07156   0.37696   0.26461   1.000
    C1520   C    0.07717   0.37633   0.19835   1.000
    H570    H    0.09390   0.37570   0.20620   1.000
    S571    S    0.58698   0.87629   0.20816   1.000
    O571    O    0.53738   0.87509   0.33434   1.000
    O572    O    0.57721   0.88822   0.32019   1.000
    O573    O    0.62008   0.87558   0.16120   1.000
    C1521   C    0.55402   0.88058   0.31735   1.000
    C1522   C    0.54544   0.87794   0.28890   1.000
    C1523   C    0.52015   0.87562   0.24933   1.000
    C1524   C    0.54682   0.87586   0.24223   1.000
    C1525   C    0.55395   0.87559   0.21545   1.000
    C1526   C    0.55944   0.87930   0.26866   1.000
    H571    H    0.57780   0.88080   0.27010   1.000
    S572    S    0.51052   0.87666   0.28204   1.000
    C1527   C    0.52214   0.87589   0.27823   1.000
    H572    H    0.50700   0.87450   0.28870   1.000
    S573    S    0.57156   0.87696   0.26461   1.000
    C1528   C    0.57717   0.87633   0.19835   1.000
    H573    H    0.59390   0.87570   0.20620   1.000
    S574    S    0.58698   0.37629   0.70816   1.000
    O574    O    0.53738   0.37509   0.83434   1.000
    O575    O    0.57721   0.38822   0.82019   1.000
    O576    O    0.62008   0.37558   0.66120   1.000
    C1529   C    0.55402   0.38058   0.81735   1.000
    C1530   C    0.54544   0.37794   0.78890   1.000
    C1531   C    0.52015   0.37562   0.74933   1.000
    C1532   C    0.54682   0.37586   0.74223   1.000
    C1533   C    0.55395   0.37559   0.71545   1.000
    C1534   C    0.55944   0.37930   0.76866   1.000
    H574    H    0.57780   0.38080   0.77010   1.000
    S575    S    0.51052   0.37666   0.78204   1.000
    C1535   C    0.52214   0.37589   0.77823   1.000
    H575    H    0.50700   0.37450   0.78870   1.000
    S576    S    0.57156   0.37696   0.76461   1.000
    C1536   C    0.57717   0.37633   0.69835   1.000
    H576    H    0.59390   0.37570   0.70620   1.000
    Fe1     Fe   0.87500   0.87500   0.03970   1.000
    O577    O    0.87500   0.87500   0.08021   1.000
    Fe2     Fe   0.87500   0.37500   0.53970   1.000
    O578    O    0.87500   0.37500   0.58021   1.000
    Fe3     Fe   0.37500   0.37500   0.71030   1.000
    O579    O    0.37500   0.37500   0.66979   1.000
    Fe4     Fe   0.87500   0.87500   0.71030   1.000
    O580    O    0.87500   0.87500   0.66979   1.000
    Fe5     Fe   0.37500   0.87500   0.21030   1.000
    O581    O    0.37500   0.87500   0.16979   1.000
    Fe6     Fe   0.03970   0.87500   0.87500   1.000
    O582    O    0.08021   0.87500   0.87500   1.000
    Fe7     Fe   0.03970   0.37500   0.37500   1.000
    O583    O    0.08021   0.37500   0.37500   1.000
    Fe8     Fe   0.53970   0.87500   0.37500   1.000
    O584    O    0.58021   0.87500   0.37500   1.000
    Fe9     Fe   0.71030   0.37500   0.37500   1.000
    O585    O    0.66979   0.37500   0.37500   1.000
    Fe10    Fe   0.71030   0.87500   0.87500   1.000
    O586    O    0.66979   0.87500   0.87500   1.000
    Fe11    Fe   0.21030   0.37500   0.87500   1.000
    O587    O    0.16979   0.37500   0.87500   1.000
    Fe12    Fe   0.87500   0.03970   0.87500   1.000
    O588    O    0.87500   0.08021   0.87500   1.000
    Fe13    Fe   0.37500   0.53970   0.87500   1.000
    O589    O    0.37500   0.58021   0.87500   1.000
    Fe14    Fe   0.37500   0.03970   0.37500   1.000
    O590    O    0.37500   0.08021   0.37500   1.000
    Fe15    Fe   0.37500   0.71030   0.37500   1.000
    O591    O    0.37500   0.66979   0.37500   1.000
    Fe16    Fe   0.87500   0.21030   0.37500   1.000
    O592    O    0.87500   0.16979   0.37500   1.000
    Fe17    Fe   0.87500   0.71030   0.87500   1.000
    O593    O    0.87500   0.66979   0.87500   1.000
    Fe18    Fe   0.62500   0.12500   0.46030   1.000
    O594    O    0.62500   0.12500   0.41979   1.000
    Fe19    Fe   0.62500   0.62500   0.96030   1.000
    O595    O    0.62500   0.62500   0.91979   1.000
    Fe20    Fe   0.12500   0.12500   0.96030   1.000
    O596    O    0.12500   0.12500   0.91979   1.000
    Fe21    Fe   0.12500   0.62500   0.78970   1.000
    O597    O    0.12500   0.62500   0.83021   1.000
    Fe22    Fe   0.12500   0.12500   0.28970   1.000
    O598    O    0.12500   0.12500   0.33021   1.000
    Fe23    Fe   0.62500   0.62500   0.28970   1.000
    O599    O    0.62500   0.62500   0.33021   1.000
    Fe24    Fe   0.62500   0.28970   0.62500   1.000
    O600    O    0.62500   0.33021   0.62500   1.000
    Fe25    Fe   0.62500   0.78970   0.12500   1.000
    O601    O    0.62500   0.83021   0.12500   1.000
    Fe26    Fe   0.12500   0.96030   0.12500   1.000
    O602    O    0.12500   0.91979   0.12500   1.000
    Fe27    Fe   0.12500   0.46030   0.62500   1.000
    O603    O    0.12500   0.41979   0.62500   1.000
    Fe28    Fe   0.62500   0.96030   0.62500   1.000
    O604    O    0.62500   0.91979   0.62500   1.000
    Fe29    Fe   0.78970   0.12500   0.62500   1.000
    O605    O    0.83021   0.12500   0.62500   1.000
    Fe30    Fe   0.28970   0.62500   0.62500   1.000
    O606    O    0.33021   0.62500   0.62500   1.000
    Fe31    Fe   0.28970   0.12500   0.12500   1.000
    O607    O    0.33021   0.12500   0.12500   1.000
    Fe32    Fe   0.46030   0.62500   0.12500   1.000
    O608    O    0.41979   0.62500   0.12500   1.000
    Fe33    Fe   0.96030   0.12500   0.12500   1.000
    O609    O    0.91979   0.12500   0.12500   1.000
    Fe34    Fe   0.96030   0.62500   0.62500   1.000
    O610    O    0.91979   0.62500   0.62500   1.000
    Fe35    Fe   0.12500   0.62500   0.46030   1.000
    O611    O    0.12500   0.62500   0.41979   1.000
    Fe36    Fe   0.62500   0.12500   0.78970   1.000
    O612    O    0.62500   0.12500   0.83021   1.000
    Fe37    Fe   0.46030   0.12500   0.62500   1.000
    O613    O    0.41979   0.12500   0.62500   1.000
    Fe38    Fe   0.78970   0.62500   0.12500   1.000
    O614    O    0.83021   0.62500   0.12500   1.000
    Fe39    Fe   0.62500   0.46030   0.12500   1.000
    O615    O    0.62500   0.41979   0.12500   1.000
    Fe40    Fe   0.12500   0.78970   0.62500   1.000
    O616    O    0.12500   0.83021   0.62500   1.000
    Fe41    Fe   0.12500   0.28970   0.12500   1.000
    O617    O    0.12500   0.33021   0.12500   1.000
    Fe42    Fe   0.37500   0.87500   0.53970   1.000
    O618    O    0.37500   0.87500   0.58021   1.000
    Fe43    Fe   0.37500   0.37500   0.03970   1.000
    O619    O    0.37500   0.37500   0.08021   1.000
    Fe44    Fe   0.87500   0.37500   0.21030   1.000
    O620    O    0.87500   0.37500   0.16979   1.000
    Fe45    Fe   0.37500   0.21030   0.87500   1.000
    O621    O    0.37500   0.16979   0.87500   1.000
    Fe46    Fe   0.87500   0.53970   0.37500   1.000
    O622    O    0.87500   0.58021   0.37500   1.000
    Fe47    Fe   0.21030   0.87500   0.37500   1.000
    O623    O    0.16979   0.87500   0.37500   1.000
    Fe48    Fe   0.53970   0.37500   0.87500   1.000
    O624    O    0.58021   0.37500   0.87500   1.000
    Fe49    Fe   0.85054   0.89946   0.10066   1.000
    Fe50    Fe   0.85054   0.39946   0.60066   1.000
    Fe51    Fe   0.89946   0.35054   0.60066   1.000
    Fe52    Fe   0.39946   0.35054   0.10066   1.000
    Fe53    Fe   0.39946   0.39946   0.64934   1.000
    Fe54    Fe   0.39946   0.89946   0.14934   1.000
    Fe55    Fe   0.89946   0.39946   0.14934   1.000
    Fe56    Fe   0.89946   0.89946   0.64934   1.000
    Fe57    Fe   0.35054   0.85054   0.14934   1.000
    Fe58    Fe   0.35054   0.35054   0.64934   1.000
    Fe59    Fe   0.10066   0.85054   0.89946   1.000
    Fe60    Fe   0.10066   0.35054   0.39946   1.000
    Fe61    Fe   0.60066   0.89946   0.35054   1.000
    Fe62    Fe   0.60066   0.39946   0.85054   1.000
    Fe63    Fe   0.64934   0.39946   0.39946   1.000
    Fe64    Fe   0.64934   0.89946   0.89946   1.000
    Fe65    Fe   0.14934   0.39946   0.89946   1.000
    Fe66    Fe   0.14934   0.89946   0.39946   1.000
    Fe67    Fe   0.14934   0.35054   0.85054   1.000
    Fe68    Fe   0.64934   0.35054   0.35054   1.000
    Fe69    Fe   0.89946   0.10066   0.85054   1.000
    Fe70    Fe   0.39946   0.10066   0.35054   1.000
    Fe71    Fe   0.35054   0.60066   0.89946   1.000
    Fe72    Fe   0.35054   0.10066   0.39946   1.000
    Fe73    Fe   0.39946   0.64934   0.39946   1.000
    Fe74    Fe   0.39946   0.14934   0.89946   1.000
    Fe75    Fe   0.89946   0.64934   0.89946   1.000
    Fe76    Fe   0.89946   0.14934   0.39946   1.000
    Fe77    Fe   0.85054   0.14934   0.35054   1.000
    Fe78    Fe   0.85054   0.64934   0.85054   1.000
    Fe79    Fe   0.64946   0.10054   0.39934   1.000
    Fe80    Fe   0.64946   0.60054   0.89934   1.000
    Fe81    Fe   0.10054   0.14946   0.89934   1.000
    Fe82    Fe   0.60054   0.14946   0.39934   1.000
    Fe83    Fe   0.14946   0.64946   0.85066   1.000
    Fe84    Fe   0.14946   0.14946   0.35066   1.000
    Fe85    Fe   0.60054   0.60054   0.35066   1.000
    Fe86    Fe   0.60054   0.10054   0.85066   1.000
    Fe87    Fe   0.10054   0.60054   0.85066   1.000
    Fe88    Fe   0.10054   0.10054   0.35066   1.000
    Fe89    Fe   0.60054   0.35066   0.60054   1.000
    Fe90    Fe   0.60054   0.85066   0.10054   1.000
    Fe91    Fe   0.10054   0.35066   0.10054   1.000
    Fe92    Fe   0.10054   0.85066   0.60054   1.000
    Fe93    Fe   0.64946   0.85066   0.14946   1.000
    Fe94    Fe   0.64946   0.35066   0.64946   1.000
    Fe95    Fe   0.14946   0.89934   0.10054   1.000
    Fe96    Fe   0.14946   0.39934   0.60054   1.000
    Fe97    Fe   0.10054   0.39934   0.64946   1.000
    Fe98    Fe   0.60054   0.39934   0.14946   1.000
    Fe99    Fe   0.85066   0.14946   0.64946   1.000
    Fe100   Fe   0.35066   0.14946   0.14946   1.000
    Fe101   Fe   0.35066   0.60054   0.60054   1.000
    Fe102   Fe   0.35066   0.10054   0.10054   1.000
    Fe103   Fe   0.85066   0.60054   0.10054   1.000
    Fe104   Fe   0.85066   0.10054   0.60054   1.000
    Fe105   Fe   0.39934   0.64946   0.10054   1.000
    Fe106   Fe   0.39934   0.14946   0.60054   1.000
    Fe107   Fe   0.89934   0.10054   0.14946   1.000
    Fe108   Fe   0.89934   0.60054   0.64946   1.000
    Fe109   Fe   0.14946   0.10054   0.89934   1.000
    Fe110   Fe   0.14946   0.60054   0.39934   1.000
    Fe111   Fe   0.10054   0.64946   0.39934   1.000
    Fe112   Fe   0.60054   0.64946   0.89934   1.000
    Fe113   Fe   0.64946   0.14946   0.85066   1.000
    Fe114   Fe   0.64946   0.64946   0.35066   1.000
    Fe115   Fe   0.89934   0.14946   0.10054   1.000
    Fe116   Fe   0.89934   0.64946   0.60054   1.000
    Fe117   Fe   0.39934   0.10054   0.64946   1.000
    Fe118   Fe   0.39934   0.60054   0.14946   1.000
    Fe119   Fe   0.85066   0.64946   0.14946   1.000
    Fe120   Fe   0.35066   0.64946   0.64946   1.000
    Fe121   Fe   0.10054   0.89934   0.14946   1.000
    Fe122   Fe   0.60054   0.89934   0.64946   1.000
    Fe123   Fe   0.64946   0.39934   0.10054   1.000
    Fe124   Fe   0.64946   0.89934   0.60054   1.000
    Fe125   Fe   0.14946   0.85066   0.64946   1.000
    Fe126   Fe   0.14946   0.35066   0.14946   1.000
    Fe127   Fe   0.35054   0.89946   0.60066   1.000
    Fe128   Fe   0.35054   0.39946   0.10066   1.000
    Fe129   Fe   0.89946   0.85054   0.10066   1.000
    Fe130   Fe   0.39946   0.85054   0.60066   1.000
    Fe131   Fe   0.85054   0.35054   0.14934   1.000
    Fe132   Fe   0.85054   0.85054   0.64934   1.000
    Fe133   Fe   0.35054   0.14934   0.85054   1.000
    Fe134   Fe   0.35054   0.64934   0.35054   1.000
    Fe135   Fe   0.85054   0.10066   0.89946   1.000
    Fe136   Fe   0.85054   0.60066   0.39946   1.000
    Fe137   Fe   0.89946   0.60066   0.35054   1.000
    Fe138   Fe   0.39946   0.60066   0.85054   1.000
    Fe139   Fe   0.14934   0.85054   0.35054   1.000
    Fe140   Fe   0.64934   0.85054   0.85054   1.000
    Fe141   Fe   0.60066   0.35054   0.89946   1.000
    Fe142   Fe   0.60066   0.85054   0.39946   1.000
    Fe143   Fe   0.10066   0.89946   0.85054   1.000
    Fe144   Fe   0.10066   0.39946   0.35054   1.000
    C1537   C    0.67386   0.87653   0.07614   1.000
    C1538   C    0.65314   0.87590   0.09686   1.000
    C1539   C    0.17386   0.87653   0.57614   1.000
    C1540   C    0.15314   0.87590   0.59686   1.000
    C1541   C    0.17386   0.37653   0.07614   1.000
    C1542   C    0.15314   0.37590   0.09686   1.000
    C1543   C    0.07614   0.37347   0.57614   1.000
    C1544   C    0.09686   0.37410   0.59686   1.000
    C1545   C    0.07614   0.87347   0.07614   1.000
    C1546   C    0.09686   0.87410   0.09686   1.000
    C1547   C    0.57614   0.87347   0.57614   1.000
    C1548   C    0.59686   0.87410   0.59686   1.000
    C1549   C    0.57614   0.37653   0.67386   1.000
    C1550   C    0.59686   0.37590   0.65314   1.000
    C1551   C    0.57614   0.87653   0.17386   1.000
    C1552   C    0.59686   0.87590   0.15314   1.000
    C1553   C    0.07614   0.37653   0.17386   1.000
    C1554   C    0.09686   0.37590   0.15314   1.000
    C1555   C    0.17386   0.87347   0.17386   1.000
    C1556   C    0.15314   0.87410   0.15314   1.000
    C1557   C    0.17386   0.37347   0.67386   1.000
    C1558   C    0.15314   0.37410   0.65314   1.000
    C1559   C    0.67386   0.87347   0.67386   1.000
    C1560   C    0.65314   0.87410   0.65314   1.000
    C1561   C    0.67386   0.37347   0.17386   1.000
    C1562   C    0.65314   0.37410   0.15314   1.000
    C1563   C    0.07614   0.67386   0.87653   1.000
    C1564   C    0.09686   0.65314   0.87590   1.000
    C1565   C    0.07614   0.17386   0.37653   1.000
    C1566   C    0.09686   0.15314   0.37590   1.000
    C1567   C    0.57614   0.07614   0.37347   1.000
    C1568   C    0.59686   0.09686   0.37410   1.000
    C1569   C    0.57614   0.57614   0.87347   1.000
    C1570   C    0.59686   0.59686   0.87410   1.000
    C1571   C    0.67386   0.57614   0.37653   1.000
    C1572   C    0.65314   0.59686   0.37590   1.000
    C1573   C    0.17386   0.57614   0.87653   1.000
    C1574   C    0.15314   0.59686   0.87590   1.000
    C1575   C    0.17386   0.07614   0.37653   1.000
    C1576   C    0.15314   0.09686   0.37590   1.000
    C1577   C    0.17386   0.17386   0.87347   1.000
    C1578   C    0.15314   0.15314   0.87410   1.000
    C1579   C    0.17386   0.67386   0.37347   1.000
    C1580   C    0.15314   0.65314   0.37410   1.000
    C1581   C    0.67386   0.17386   0.37347   1.000
    C1582   C    0.65314   0.15314   0.37410   1.000
    C1583   C    0.67386   0.67386   0.87347   1.000
    C1584   C    0.65314   0.65314   0.87410   1.000
    C1585   C    0.87653   0.07614   0.67386   1.000
    C1586   C    0.87590   0.09686   0.65314   1.000
    C1587   C    0.87653   0.57614   0.17386   1.000
    C1588   C    0.87590   0.59686   0.15314   1.000
    C1589   C    0.37653   0.07614   0.17386   1.000
    C1590   C    0.37590   0.09686   0.15314   1.000
    C1591   C    0.37347   0.57614   0.07614   1.000
    C1592   C    0.37410   0.59686   0.09686   1.000
    C1593   C    0.87347   0.57614   0.57614   1.000
    C1594   C    0.87410   0.59686   0.59686   1.000
    C1595   C    0.37653   0.67386   0.57614   1.000
    C1596   C    0.37590   0.65314   0.59686   1.000
    C1597   C    0.37653   0.17386   0.07614   1.000
    C1598   C    0.37590   0.15314   0.09686   1.000
    C1599   C    0.87347   0.17386   0.17386   1.000
    C1600   C    0.87410   0.15314   0.15314   1.000
    C1601   C    0.87347   0.67386   0.67386   1.000
    C1602   C    0.87410   0.65314   0.65314   1.000
    C1603   C    0.37347   0.17386   0.67386   1.000
    C1604   C    0.37410   0.15314   0.65314   1.000
    C1605   C    0.37347   0.67386   0.17386   1.000
    C1606   C    0.37410   0.65314   0.15314   1.000
    C1607   C    0.62653   0.92386   0.42386   1.000
    C1608   C    0.62590   0.90314   0.40314   1.000
    C1609   C    0.12653   0.92386   0.92386   1.000
    C1610   C    0.12590   0.90314   0.90314   1.000
    C1611   C    0.12347   0.32614   0.92386   1.000
    C1612   C    0.12410   0.34686   0.90314   1.000
    C1613   C    0.12347   0.82614   0.42386   1.000
    C1614   C    0.12410   0.84686   0.40314   1.000
    C1615   C    0.12653   0.82614   0.82614   1.000
    C1616   C    0.12590   0.84686   0.84686   1.000
    C1617   C    0.12653   0.32614   0.32614   1.000
    C1618   C    0.12590   0.34686   0.34686   1.000
    C1619   C    0.62653   0.82614   0.32614   1.000
    C1620   C    0.62590   0.84686   0.34686   1.000
    C1621   C    0.62653   0.32614   0.82614   1.000
    C1622   C    0.62590   0.34686   0.84686   1.000
    C1623   C    0.62347   0.42386   0.32614   1.000
    C1624   C    0.62410   0.40314   0.34686   1.000
    C1625   C    0.62347   0.92386   0.82614   1.000
    C1626   C    0.62410   0.90314   0.84686   1.000
    C1627   C    0.42386   0.32614   0.62347   1.000
    C1628   C    0.40314   0.34686   0.62410   1.000
    C1629   C    0.42386   0.82614   0.12347   1.000
    C1630   C    0.40314   0.84686   0.12410   1.000
    C1631   C    0.82614   0.82614   0.12653   1.000
    C1632   C    0.84686   0.84686   0.12590   1.000
    C1633   C    0.82614   0.32614   0.62653   1.000
    C1634   C    0.84686   0.34686   0.62590   1.000
    C1635   C    0.32614   0.82614   0.62653   1.000
    C1636   C    0.34686   0.84686   0.62590   1.000
    C1637   C    0.32614   0.32614   0.12653   1.000
    C1638   C    0.34686   0.34686   0.12590   1.000
    C1639   C    0.32614   0.92386   0.12347   1.000
    C1640   C    0.34686   0.90314   0.12410   1.000
    C1641   C    0.82614   0.92386   0.62347   1.000
    C1642   C    0.84686   0.90314   0.62410   1.000
    C1643   C    0.92386   0.42386   0.62653   1.000
    C1644   C    0.90314   0.40314   0.62590   1.000
    C1645   C    0.92386   0.92386   0.12653   1.000
    C1646   C    0.90314   0.90314   0.12590   1.000
    C1647   C    0.82614   0.12653   0.82614   1.000
    C1648   C    0.84686   0.12590   0.84686   1.000
    C1649   C    0.82614   0.62653   0.32614   1.000
    C1650   C    0.84686   0.62590   0.34686   1.000
    C1651   C    0.32614   0.12653   0.32614   1.000
    C1652   C    0.34686   0.12590   0.34686   1.000
    C1653   C    0.32614   0.62653   0.82614   1.000
    C1654   C    0.34686   0.62590   0.84686   1.000
    C1655   C    0.32614   0.62347   0.42386   1.000
    C1656   C    0.34686   0.62410   0.40314   1.000
    C1657   C    0.82614   0.62347   0.92386   1.000
    C1658   C    0.84686   0.62410   0.90314   1.000
    C1659   C    0.42386   0.62653   0.92386   1.000
    C1660   C    0.40314   0.62590   0.90314   1.000
    C1661   C    0.42386   0.12653   0.42386   1.000
    C1662   C    0.40314   0.12590   0.40314   1.000
    C1663   C    0.92386   0.12653   0.92386   1.000
    C1664   C    0.90314   0.12590   0.90314   1.000
    C1665   C    0.92386   0.12347   0.32614   1.000
    C1666   C    0.90314   0.12410   0.34686   1.000
    C1667   C    0.92386   0.62347   0.82614   1.000
    C1668   C    0.90314   0.62410   0.84686   1.000
    C1669   C    0.32614   0.12347   0.92386   1.000
    C1670   C    0.34686   0.12410   0.90314   1.000
    C1671   C    0.82614   0.12347   0.42386   1.000
    C1672   C    0.84686   0.12410   0.40314   1.000
    C1673   C    0.92386   0.62653   0.42386   1.000
    C1674   C    0.90314   0.62590   0.40314   1.000
    C1675   C    0.42386   0.62347   0.32614   1.000
    C1676   C    0.40314   0.62410   0.34686   1.000
    C1677   C    0.42386   0.12347   0.82614   1.000
    C1678   C    0.40314   0.12410   0.84686   1.000
    C1679   C    0.92386   0.32614   0.12347   1.000
    C1680   C    0.90314   0.34686   0.12410   1.000
    C1681   C    0.92386   0.82614   0.62347   1.000
    C1682   C    0.90314   0.84686   0.62410   1.000
    C1683   C    0.42386   0.92386   0.62653   1.000
    C1684   C    0.40314   0.90314   0.62590   1.000
    C1685   C    0.42386   0.42386   0.12653   1.000
    C1686   C    0.40314   0.40314   0.12590   1.000
    C1687   C    0.32614   0.42386   0.62347   1.000
    C1688   C    0.34686   0.40314   0.62410   1.000
    C1689   C    0.82614   0.42386   0.12347   1.000
    C1690   C    0.84686   0.40314   0.12410   1.000
    C1691   C    0.12347   0.92386   0.32614   1.000
    C1692   C    0.12410   0.90314   0.34686   1.000
    C1693   C    0.12347   0.42386   0.82614   1.000
    C1694   C    0.12410   0.40314   0.84686   1.000
    C1695   C    0.62653   0.42386   0.92386   1.000
    C1696   C    0.62590   0.40314   0.90314   1.000
    C1697   C    0.12653   0.42386   0.42386   1.000
    C1698   C    0.12590   0.40314   0.40314   1.000
    C1699   C    0.62347   0.32614   0.42386   1.000
    C1700   C    0.62410   0.34686   0.40314   1.000
    C1701   C    0.62347   0.82614   0.92386   1.000
    C1702   C    0.62410   0.84686   0.90314   1.000
    C1703   C    0.37347   0.07614   0.57614   1.000
    C1704   C    0.37410   0.09686   0.59686   1.000
    C1705   C    0.87347   0.07614   0.07614   1.000
    C1706   C    0.87410   0.09686   0.09686   1.000
    C1707   C    0.87653   0.67386   0.07614   1.000
    C1708   C    0.87590   0.65314   0.09686   1.000
    C1709   C    0.87653   0.17386   0.57614   1.000
    C1710   C    0.87590   0.15314   0.59686   1.000
    C1711   C    0.37653   0.57614   0.67386   1.000
    C1712   C    0.37590   0.59686   0.65314   1.000
    C1713   C    0.57614   0.67386   0.37653   1.000
    C1714   C    0.59686   0.65314   0.37590   1.000
    C1715   C    0.57614   0.17386   0.87653   1.000
    C1716   C    0.59686   0.15314   0.87590   1.000
    C1717   C    0.67386   0.07614   0.87653   1.000
    C1718   C    0.65314   0.09686   0.87590   1.000
    C1719   C    0.07614   0.57614   0.37347   1.000
    C1720   C    0.09686   0.59686   0.37410   1.000
    C1721   C    0.07614   0.07614   0.87347   1.000
    C1722   C    0.09686   0.09686   0.87410   1.000
    C1723   C    0.67386   0.37653   0.57614   1.000
    C1724   C    0.65314   0.37590   0.59686   1.000
    C1725   C    0.57614   0.37347   0.07614   1.000
    C1726   C    0.59686   0.37410   0.09686   1.000
    C1727   C    0.07614   0.87653   0.67386   1.000
    C1728   C    0.09686   0.87590   0.65314   1.000
