# CIF file generated by openbabel 2.4.1, see http://openbabel.sf.net
data_I
_chemical_name_common 'image0'
_cell_length_a 31.8565
_cell_length_b 31.8565
_cell_length_c 12.6269
_cell_angle_alpha 90
_cell_angle_beta 90
_cell_angle_gamma 120
_space_group_name_H-M_alt 'P 1'
_space_group_name_Hall 'P 1'
loop_
    _symmetry_equiv_pos_as_xyz
    x,y,z
loop_
    _atom_site_label
    _atom_site_type_symbol
    _atom_site_fract_x
    _atom_site_fract_y
    _atom_site_fract_z
    _atom_site_occupancy
    Zn1     Zn   0.70923   0.01641   0.68810   1.000
    O1      O    0.69989   0.00249   0.53430   1.000
    O2      O    0.70834   0.00848   0.36140   1.000
    C1      C    0.77704   0.05720   0.46570   1.000
    H1      H    0.78830   0.07030   0.53420   1.000
    C2      C    0.72580   0.02110   0.45290   1.000
    C3      C    0.69800   0.94180   0.84370   1.000
    H2      H    0.71040   0.96850   0.89100   1.000
    C4      C    0.68940   0.89780   0.88120   1.000
    H3      H    0.69610   0.89480   0.95320   1.000
    C5      C    0.67100   0.85710   0.81460   1.000
    C6      C    0.66250   0.86530   0.71130   1.000
    H4      H    0.64970   0.83920   0.66220   1.000
    C7      C    0.67220   0.91000   0.67830   1.000
    H5      H    0.66630   0.91410   0.60630   1.000
    C8      C    0.88460   0.12870   0.47850   1.000
    H6      H    0.86630   0.12410   0.54110   1.000
    C9      C    0.93390   0.16230   0.47730   1.000
    C10     C    0.96080   0.16900   0.38570   1.000
    H7      H    0.99450   0.19190   0.38480   1.000
    C11     C    0.93830   0.14220   0.29530   1.000
    H8      H    0.95670   0.14680   0.23270   1.000
    C12     C    0.88900   0.10870   0.29660   1.000
    H9      H    0.87360   0.09030   0.23480   1.000
    C13     C    0.86210   0.10190   0.38820   1.000
    O3      O    0.95620   0.18820   0.56270   1.000
    H10     H    0.93570   0.18880   0.60360   1.000
    C14     C    0.80910   0.07270   0.38510   1.000
    H11     H    0.79540   0.06340   0.31640   1.000
    C15     C    0.94390   0.20050   0.83040   1.000
    H12     H    0.92960   0.21380   0.78590   1.000
    C16     C    0.99050   0.22990   0.86970   1.000
    H13     H    0.00790   0.26330   0.85200   1.000
    C17     C    0.01150   0.21030   0.93490   1.000
    H14     H    0.04330   0.23040   0.96170   1.000
    C18     C    0.98600   0.16140   0.96070   1.000
    C19     C    0.93950   0.13200   0.92140   1.000
    H15     H    0.92210   0.09850   0.93910   1.000
    C20     C    0.91850   0.15150   0.85630   1.000
    O4      O    0.00710   0.14270   0.02150   1.000
    H16     H    0.01590   0.12690   0.98360   1.000
    C21     C    0.86728   0.11740   0.81620   1.000
    H17     H    0.85400   0.08360   0.82720   1.000
    C22     C    0.84000   0.13230   0.76650   1.000
    H18     H    0.85230   0.16580   0.75330   1.000
    C23     C    0.79130   0.09690   0.73300   1.000
    O5      O    0.77300   0.05270   0.75190   1.000
    O6      O    0.76790   0.11320   0.68690   1.000
    C24     C    0.89120   0.10740   0.30890   1.000
    H19     H    0.87750   0.08820   0.24720   1.000
    C25     C    0.94070   0.13990   0.31390   1.000
    C26     C    0.96060   0.16800   0.40410   1.000
    H20     H    0.99450   0.19020   0.40760   1.000
    C27     C    0.93100   0.16350   0.48930   1.000
    H21     H    0.94460   0.18270   0.55100   1.000
    C28     C    0.88150   0.13100   0.48430   1.000
    H22     H    0.86130   0.12790   0.54250   1.000
    C29     C    0.86160   0.10290   0.39410   1.000
    O7      O    0.96760   0.15280   0.22600   1.000
    H23     H    0.95000   0.14900   0.17330   1.000
    C30     C    0.81080   0.06400   0.39310   1.000
    H24     H    0.80090   0.04150   0.33620   1.000
    C31     C    0.94930   0.19348   0.84630   1.000
    H25     H    0.93520   0.20280   0.79140   1.000
    C32     C    0.99431   0.22690   0.88730   1.000
    H26     H    0.01100   0.25910   0.86040   1.000
    C33     C    0.01490   0.21330   0.96770   1.000
    H27     H    0.04570   0.23620   0.99580   1.000
    C34     C    0.99047   0.16630   0.00710   1.000
    C35     C    0.94546   0.13280   0.96610   1.000
    H28     H    0.92880   0.10070   0.99300   1.000
    C36     C    0.92487   0.14640   0.88570   1.000
    O8      O    0.01263   0.15260   0.07730   1.000
    H29     H    0.99280   0.12500   0.10090   1.000
    C37     C    0.87540   0.10796   0.84470   1.000
    H30     H    0.86460   0.07520   0.86290   1.000
    C38     C    0.84595   0.11675   0.78500   1.000
    H31     H    0.85570   0.14870   0.76180   1.000
    C39     C    0.79875   0.07638   0.75660   1.000
    O9      O    0.78765   0.03346   0.77490   1.000
    O10     O    0.77057   0.08635   0.70970   1.000
    N1      N    0.68952   0.94843   0.74280   1.000
    Zn2     Zn   0.37590   0.34974   0.02143   1.000
    O11     O    0.36656   0.33582   0.86763   1.000
    O12     O    0.37501   0.34181   0.69473   1.000
    C40     C    0.44371   0.39053   0.79903   1.000
    H32     H    0.45497   0.40363   0.86753   1.000
    C41     C    0.39247   0.35443   0.78623   1.000
    C42     C    0.36467   0.27513   0.17703   1.000
    H33     H    0.37707   0.30183   0.22433   1.000
    C43     C    0.35607   0.23113   0.21453   1.000
    H34     H    0.36277   0.22813   0.28653   1.000
    C44     C    0.33767   0.19043   0.14793   1.000
    C45     C    0.32917   0.19863   0.04463   1.000
    H35     H    0.31637   0.17253   0.99553   1.000
    C46     C    0.33887   0.24333   0.01163   1.000
    H36     H    0.33297   0.24743   0.93963   1.000
    C47     C    0.55127   0.46203   0.81183   1.000
    H37     H    0.53297   0.45743   0.87443   1.000
    C48     C    0.60057   0.49563   0.81063   1.000
    C49     C    0.62747   0.50233   0.71903   1.000
    H38     H    0.66117   0.52523   0.71813   1.000
    C50     C    0.60497   0.47553   0.62863   1.000
    H39     H    0.62337   0.48013   0.56603   1.000
    C51     C    0.55567   0.44203   0.62993   1.000
    H40     H    0.54027   0.42363   0.56813   1.000
    C52     C    0.52877   0.43523   0.72153   1.000
    O13     O    0.62287   0.52153   0.89603   1.000
    H41     H    0.60237   0.52213   0.93693   1.000
    C53     C    0.47577   0.40603   0.71843   1.000
    H42     H    0.46207   0.39673   0.64973   1.000
    C54     C    0.61057   0.53383   0.16373   1.000
    H43     H    0.59627   0.54713   0.11923   1.000
    C55     C    0.65717   0.56323   0.20303   1.000
    H44     H    0.67457   0.59663   0.18533   1.000
    C56     C    0.67817   0.54363   0.26823   1.000
    H45     H    0.70997   0.56373   0.29503   1.000
    C57     C    0.65267   0.49473   0.29403   1.000
    C58     C    0.60617   0.46533   0.25473   1.000
    H46     H    0.58877   0.43183   0.27243   1.000
    C59     C    0.58517   0.48483   0.18963   1.000
    O14     O    0.67377   0.47603   0.35483   1.000
    H47     H    0.68257   0.46023   0.31693   1.000
    C60     C    0.53395   0.45073   0.14953   1.000
    H48     H    0.52067   0.41693   0.16053   1.000
    C61     C    0.50667   0.46563   0.09983   1.000
    H49     H    0.51897   0.49913   0.08663   1.000
    C62     C    0.45797   0.43023   0.06633   1.000
    O15     O    0.43967   0.38603   0.08523   1.000
    O16     O    0.43457   0.44653   0.02023   1.000
    C63     C    0.55787   0.44073   0.64223   1.000
    H50     H    0.54417   0.42153   0.58053   1.000
    C64     C    0.60737   0.47323   0.64723   1.000
    C65     C    0.62727   0.50133   0.73743   1.000
    H51     H    0.66117   0.52353   0.74093   1.000
    C66     C    0.59767   0.49683   0.82263   1.000
    H52     H    0.61127   0.51603   0.88433   1.000
    C67     C    0.54817   0.46433   0.81763   1.000
    H53     H    0.52797   0.46123   0.87583   1.000
    C68     C    0.52827   0.43623   0.72743   1.000
    O17     O    0.63427   0.48613   0.55933   1.000
    H54     H    0.61667   0.48233   0.50663   1.000
    C69     C    0.47747   0.39733   0.72643   1.000
    H55     H    0.46757   0.37483   0.66953   1.000
    C70     C    0.61597   0.52681   0.17963   1.000
    H56     H    0.60187   0.53613   0.12473   1.000
    C71     C    0.66098   0.56023   0.22063   1.000
    H57     H    0.67767   0.59243   0.19373   1.000
    C72     C    0.68157   0.54663   0.30103   1.000
    H58     H    0.71237   0.56953   0.32913   1.000
    C73     C    0.65714   0.49963   0.34043   1.000
    C74     C    0.61213   0.46613   0.29943   1.000
    H59     H    0.59547   0.43403   0.32633   1.000
    C75     C    0.59154   0.47973   0.21903   1.000
    O18     O    0.67930   0.48593   0.41063   1.000
    H60     H    0.65947   0.45833   0.43423   1.000
    C76     C    0.54207   0.44129   0.17803   1.000
    H61     H    0.53127   0.40853   0.19623   1.000
    C77     C    0.51262   0.45008   0.11833   1.000
    H62     H    0.52237   0.48203   0.09513   1.000
    C78     C    0.46542   0.40971   0.08993   1.000
    O19     O    0.45432   0.36679   0.10823   1.000
    O20     O    0.43724   0.41968   0.04303   1.000
    N2      N    0.35619   0.28176   0.07613   1.000
    Zn3     Zn   0.04256   0.68308   0.35477   1.000
    O21     O    0.03322   0.66916   0.20097   1.000
    O22     O    0.04167   0.67515   0.02807   1.000
    C79     C    0.11037   0.72387   0.13237   1.000
    H63     H    0.12163   0.73697   0.20087   1.000
    C80     C    0.05913   0.68777   0.11957   1.000
    C81     C    0.03133   0.60847   0.51037   1.000
    H64     H    0.04373   0.63517   0.55767   1.000
    C82     C    0.02273   0.56447   0.54787   1.000
    H65     H    0.02943   0.56147   0.61987   1.000
    C83     C    0.00433   0.52377   0.48127   1.000
    C84     C    0.99583   0.53197   0.37797   1.000
    H66     H    0.98303   0.50587   0.32887   1.000
    C85     C    0.00553   0.57667   0.34497   1.000
    H67     H    0.99963   0.58077   0.27297   1.000
    C86     C    0.21793   0.79537   0.14517   1.000
    H68     H    0.19963   0.79077   0.20777   1.000
    C87     C    0.26723   0.82897   0.14397   1.000
    C88     C    0.29413   0.83567   0.05237   1.000
    H69     H    0.32783   0.85857   0.05147   1.000
    C89     C    0.27163   0.80887   0.96197   1.000
    H70     H    0.29003   0.81347   0.89937   1.000
    C90     C    0.22233   0.77537   0.96327   1.000
    H71     H    0.20693   0.75697   0.90147   1.000
    C91     C    0.19543   0.76857   0.05487   1.000
    O23     O    0.28953   0.85487   0.22937   1.000
    H72     H    0.26903   0.85547   0.27027   1.000
    C92     C    0.14243   0.73937   0.05177   1.000
    H73     H    0.12873   0.73007   0.98307   1.000
    C93     C    0.27723   0.86717   0.49707   1.000
    H74     H    0.26293   0.88047   0.45257   1.000
    C94     C    0.32383   0.89657   0.53637   1.000
    H75     H    0.34123   0.92997   0.51867   1.000
    C95     C    0.34483   0.87697   0.60157   1.000
    H76     H    0.37663   0.89707   0.62837   1.000
    C96     C    0.31933   0.82807   0.62737   1.000
    C97     C    0.27283   0.79867   0.58807   1.000
    H77     H    0.25543   0.76517   0.60577   1.000
    C98     C    0.25183   0.81817   0.52297   1.000
    O24     O    0.34043   0.80937   0.68817   1.000
    H78     H    0.34923   0.79357   0.65027   1.000
    C99     C    0.20061   0.78407   0.48287   1.000
    H79     H    0.18733   0.75027   0.49387   1.000
    C100    C    0.17333   0.79897   0.43317   1.000
    H80     H    0.18563   0.83247   0.41997   1.000
    C101    C    0.12463   0.76357   0.39967   1.000
    O25     O    0.10633   0.71937   0.41857   1.000
    O26     O    0.10123   0.77987   0.35357   1.000
    C102    C    0.22453   0.77407   0.97557   1.000
    H81     H    0.21083   0.75487   0.91387   1.000
    C103    C    0.27403   0.80657   0.98057   1.000
    C104    C    0.29393   0.83467   0.07077   1.000
    H82     H    0.32783   0.85687   0.07427   1.000
    C105    C    0.26433   0.83017   0.15597   1.000
    H83     H    0.27793   0.84937   0.21767   1.000
    C106    C    0.21483   0.79767   0.15097   1.000
    H84     H    0.19463   0.79457   0.20917   1.000
    C107    C    0.19493   0.76957   0.06077   1.000
    O27     O    0.30093   0.81947   0.89267   1.000
    H85     H    0.28333   0.81567   0.83997   1.000
    C108    C    0.14413   0.73067   0.05977   1.000
    H86     H    0.13423   0.70817   0.00287   1.000
    C109    C    0.28263   0.86015   0.51297   1.000
    H87     H    0.26853   0.86947   0.45807   1.000
    C110    C    0.32764   0.89357   0.55397   1.000
    H88     H    0.34433   0.92577   0.52707   1.000
    C111    C    0.34823   0.87997   0.63437   1.000
    H89     H    0.37903   0.90287   0.66247   1.000
    C112    C    0.32380   0.83297   0.67377   1.000
    C113    C    0.27879   0.79947   0.63277   1.000
    H90     H    0.26213   0.76737   0.65967   1.000
    C114    C    0.25820   0.81307   0.55237   1.000
    O28     O    0.34596   0.81927   0.74397   1.000
    H91     H    0.32613   0.79167   0.76757   1.000
    C115    C    0.20873   0.77463   0.51137   1.000
    H92     H    0.19793   0.74187   0.52957   1.000
    C116    C    0.17928   0.78342   0.45167   1.000
    H93     H    0.18903   0.81537   0.42847   1.000
    C117    C    0.13208   0.74305   0.42327   1.000
    O29     O    0.12098   0.70013   0.44157   1.000
    O30     O    0.10390   0.75302   0.37637   1.000
    N3      N    0.02285   0.61510   0.40947   1.000
    Zn4     Zn   0.98359   0.69282   0.68810   1.000
    O31     O    0.99751   0.69740   0.53430   1.000
    O32     O    0.99152   0.69986   0.36140   1.000
    C118    C    0.94280   0.71984   0.46570   1.000
    H94     H    0.92970   0.71800   0.53420   1.000
    C119    C    0.97890   0.70470   0.45290   1.000
    C120    C    0.05820   0.75620   0.84370   1.000
    H95     H    0.03150   0.74190   0.89100   1.000
    C121    C    0.10220   0.79160   0.88120   1.000
    H96     H    0.10520   0.80130   0.95320   1.000
    C122    C    0.14290   0.81390   0.81460   1.000
    C123    C    0.13470   0.79720   0.71130   1.000
    H97     H    0.16080   0.81050   0.66220   1.000
    C124    C    0.09000   0.76220   0.67830   1.000
    H98     H    0.08590   0.75220   0.60630   1.000
    C125    C    0.87130   0.75590   0.47850   1.000
    H99     H    0.87590   0.74220   0.54110   1.000
    C126    C    0.83770   0.77160   0.47730   1.000
    C127    C    0.83100   0.79180   0.38570   1.000
    H100    H    0.80810   0.80260   0.38480   1.000
    C128    C    0.85780   0.79610   0.29530   1.000
    H101    H    0.85320   0.80990   0.23270   1.000
    C129    C    0.89130   0.78030   0.29660   1.000
    H102    H    0.90970   0.78330   0.23480   1.000
    C130    C    0.89810   0.76020   0.38820   1.000
    O33     O    0.81180   0.76800   0.56270   1.000
    H103    H    0.81120   0.74690   0.60360   1.000
    C131    C    0.92730   0.73640   0.38510   1.000
    H104    H    0.93660   0.73200   0.31640   1.000
    C132    C    0.79950   0.74340   0.83040   1.000
    H105    H    0.78620   0.71580   0.78590   1.000
    C133    C    0.77010   0.76060   0.86970   1.000
    H106    H    0.73670   0.74460   0.85200   1.000
    C134    C    0.78970   0.80120   0.93490   1.000
    H107    H    0.76960   0.81290   0.96170   1.000
    C135    C    0.83860   0.82460   0.96070   1.000
    C136    C    0.86800   0.80750   0.92140   1.000
    H108    H    0.90150   0.82360   0.93910   1.000
    C137    C    0.84850   0.76700   0.85630   1.000
    O34     O    0.85730   0.86440   0.02150   1.000
    H109    H    0.87310   0.88900   0.98360   1.000
    C138    C    0.88260   0.74988   0.81620   1.000
    H110    H    0.91640   0.77040   0.82720   1.000
    C139    C    0.86770   0.70770   0.76650   1.000
    H111    H    0.83420   0.68650   0.75330   1.000
    C140    C    0.90310   0.69440   0.73300   1.000
    O35     O    0.94730   0.72030   0.75190   1.000
    O36     O    0.88680   0.65470   0.68690   1.000
    C141    C    0.89260   0.78380   0.30890   1.000
    H112    H    0.91180   0.78930   0.24720   1.000
    C142    C    0.86010   0.80080   0.31390   1.000
    C143    C    0.83200   0.79260   0.40410   1.000
    H113    H    0.80980   0.80430   0.40760   1.000
    C144    C    0.83650   0.76750   0.48930   1.000
    H114    H    0.81730   0.76190   0.55100   1.000
    C145    C    0.86900   0.75050   0.48430   1.000
    H115    H    0.87210   0.73340   0.54250   1.000
    C146    C    0.89710   0.75870   0.39410   1.000
    O37     O    0.84720   0.81480   0.22600   1.000
    H116    H    0.85100   0.80100   0.17330   1.000
    C147    C    0.93600   0.74680   0.39310   1.000
    H117    H    0.95850   0.75940   0.33620   1.000
    C148    C    0.80652   0.75582   0.84630   1.000
    H118    H    0.79720   0.73240   0.79140   1.000
    C149    C    0.77310   0.76741   0.88730   1.000
    H119    H    0.74090   0.75190   0.86040   1.000
    C150    C    0.78670   0.80160   0.96770   1.000
    H120    H    0.76380   0.80950   0.99580   1.000
    C151    C    0.83370   0.82417   0.00710   1.000
    C152    C    0.86720   0.81266   0.96610   1.000
    H121    H    0.89930   0.82810   0.99300   1.000
    C153    C    0.85360   0.77847   0.88570   1.000
    O38     O    0.84740   0.86003   0.07730   1.000
    H122    H    0.87500   0.86780   0.10090   1.000
    C154    C    0.89204   0.76744   0.84470   1.000
    H123    H    0.92480   0.78940   0.86290   1.000
    C155    C    0.88325   0.72920   0.78500   1.000
    H124    H    0.85130   0.70700   0.76180   1.000
    C156    C    0.92362   0.72237   0.75660   1.000
    O39     O    0.96654   0.75419   0.77490   1.000
    O40     O    0.91365   0.68422   0.70970   1.000
    N4      N    0.05157   0.74109   0.74280   1.000
    Zn5     Zn   0.65026   0.02615   0.02143   1.000
    O41     O    0.66418   0.03073   0.86763   1.000
    O42     O    0.65819   0.03319   0.69473   1.000
    C157    C    0.60947   0.05317   0.79903   1.000
    H125    H    0.59637   0.05133   0.86753   1.000
    C158    C    0.64557   0.03803   0.78623   1.000
    C159    C    0.72487   0.08953   0.17703   1.000
    H126    H    0.69817   0.07523   0.22433   1.000
    C160    C    0.76887   0.12493   0.21453   1.000
    H127    H    0.77187   0.13463   0.28653   1.000
    C161    C    0.80957   0.14723   0.14793   1.000
    C162    C    0.80137   0.13053   0.04463   1.000
    H128    H    0.82747   0.14383   0.99553   1.000
    C163    C    0.75667   0.09553   0.01163   1.000
    H129    H    0.75257   0.08553   0.93963   1.000
    C164    C    0.53797   0.08923   0.81183   1.000
    H130    H    0.54257   0.07553   0.87443   1.000
    C165    C    0.50437   0.10493   0.81063   1.000
    C166    C    0.49767   0.12513   0.71903   1.000
    H131    H    0.47477   0.13593   0.71813   1.000
    C167    C    0.52447   0.12943   0.62863   1.000
    H132    H    0.51987   0.14323   0.56603   1.000
    C168    C    0.55797   0.11363   0.62993   1.000
    H133    H    0.57637   0.11663   0.56813   1.000
    C169    C    0.56477   0.09353   0.72153   1.000
    O43     O    0.47847   0.10133   0.89603   1.000
    H134    H    0.47787   0.08023   0.93693   1.000
    C170    C    0.59397   0.06973   0.71843   1.000
    H135    H    0.60327   0.06533   0.64973   1.000
    C171    C    0.46617   0.07673   0.16373   1.000
    H136    H    0.45287   0.04913   0.11923   1.000
    C172    C    0.43677   0.09393   0.20303   1.000
    H137    H    0.40337   0.07793   0.18533   1.000
    C173    C    0.45637   0.13453   0.26823   1.000
    H138    H    0.43627   0.14623   0.29503   1.000
    C174    C    0.50527   0.15793   0.29403   1.000
    C175    C    0.53467   0.14083   0.25473   1.000
    H139    H    0.56817   0.15693   0.27243   1.000
    C176    C    0.51517   0.10033   0.18963   1.000
    O44     O    0.52397   0.19773   0.35483   1.000
    H140    H    0.53977   0.22233   0.31693   1.000
    C177    C    0.54927   0.08321   0.14953   1.000
    H141    H    0.58307   0.10373   0.16053   1.000
    C178    C    0.53437   0.04103   0.09983   1.000
    H142    H    0.50087   0.01983   0.08663   1.000
    C179    C    0.56977   0.02773   0.06633   1.000
    O45     O    0.61397   0.05363   0.08523   1.000
    O46     O    0.55347   0.98803   0.02023   1.000
    C180    C    0.55927   0.11713   0.64223   1.000
    H143    H    0.57847   0.12263   0.58053   1.000
    C181    C    0.52677   0.13413   0.64723   1.000
    C182    C    0.49867   0.12593   0.73743   1.000
    H144    H    0.47647   0.13763   0.74093   1.000
    C183    C    0.50317   0.10083   0.82263   1.000
    H145    H    0.48397   0.09523   0.88433   1.000
    C184    C    0.53567   0.08383   0.81763   1.000
    H146    H    0.53877   0.06673   0.87583   1.000
    C185    C    0.56377   0.09203   0.72743   1.000
    O47     O    0.51387   0.14813   0.55933   1.000
    H147    H    0.51767   0.13433   0.50663   1.000
    C186    C    0.60267   0.08013   0.72643   1.000
    H148    H    0.62517   0.09273   0.66953   1.000
    C187    C    0.47319   0.08915   0.17963   1.000
    H149    H    0.46387   0.06573   0.12473   1.000
    C188    C    0.43977   0.10074   0.22063   1.000
    H150    H    0.40757   0.08523   0.19373   1.000
    C189    C    0.45337   0.13493   0.30103   1.000
    H151    H    0.43047   0.14283   0.32913   1.000
    C190    C    0.50037   0.15750   0.34043   1.000
    C191    C    0.53387   0.14599   0.29943   1.000
    H152    H    0.56597   0.16143   0.32633   1.000
    C192    C    0.52027   0.11180   0.21903   1.000
    O48     O    0.51407   0.19336   0.41063   1.000
    H153    H    0.54167   0.20113   0.43423   1.000
    C193    C    0.55871   0.10077   0.17803   1.000
    H154    H    0.59147   0.12273   0.19623   1.000
    C194    C    0.54992   0.06253   0.11833   1.000
    H155    H    0.51797   0.04033   0.09513   1.000
    C195    C    0.59029   0.05570   0.08993   1.000
    O49     O    0.63321   0.08752   0.10823   1.000
    O50     O    0.58032   0.01755   0.04303   1.000
    N5      N    0.71824   0.07442   0.07613   1.000
    Zn6     Zn   0.31692   0.35949   0.35477   1.000
    O51     O    0.33084   0.36407   0.20097   1.000
    O52     O    0.32485   0.36653   0.02807   1.000
    C196    C    0.27613   0.38651   0.13237   1.000
    H156    H    0.26303   0.38467   0.20087   1.000
    C197    C    0.31223   0.37137   0.11957   1.000
    C198    C    0.39153   0.42287   0.51037   1.000
    H157    H    0.36483   0.40857   0.55767   1.000
    C199    C    0.43553   0.45827   0.54787   1.000
    H158    H    0.43853   0.46797   0.61987   1.000
    C200    C    0.47623   0.48057   0.48127   1.000
    C201    C    0.46803   0.46387   0.37797   1.000
    H159    H    0.49413   0.47717   0.32887   1.000
    C202    C    0.42333   0.42887   0.34497   1.000
    H160    H    0.41923   0.41887   0.27297   1.000
    C203    C    0.20463   0.42257   0.14517   1.000
    H161    H    0.20923   0.40887   0.20777   1.000
    C204    C    0.17103   0.43827   0.14397   1.000
    C205    C    0.16433   0.45847   0.05237   1.000
    H162    H    0.14143   0.46927   0.05147   1.000
    C206    C    0.19113   0.46277   0.96197   1.000
    H163    H    0.18653   0.47657   0.89937   1.000
    C207    C    0.22463   0.44697   0.96327   1.000
    H164    H    0.24303   0.44997   0.90147   1.000
    C208    C    0.23143   0.42687   0.05487   1.000
    O53     O    0.14513   0.43467   0.22937   1.000
    H165    H    0.14453   0.41357   0.27027   1.000
    C209    C    0.26063   0.40307   0.05177   1.000
    H166    H    0.26993   0.39867   0.98307   1.000
    C210    C    0.13283   0.41007   0.49707   1.000
    H167    H    0.11953   0.38247   0.45257   1.000
    C211    C    0.10343   0.42727   0.53637   1.000
    H168    H    0.07003   0.41127   0.51867   1.000
    C212    C    0.12303   0.46787   0.60157   1.000
    H169    H    0.10293   0.47957   0.62837   1.000
    C213    C    0.17193   0.49127   0.62737   1.000
    C214    C    0.20133   0.47417   0.58807   1.000
    H170    H    0.23483   0.49027   0.60577   1.000
    C215    C    0.18183   0.43367   0.52297   1.000
    O54     O    0.19063   0.53107   0.68817   1.000
    H171    H    0.20643   0.55567   0.65027   1.000
    C216    C    0.21593   0.41655   0.48287   1.000
    H172    H    0.24973   0.43707   0.49387   1.000
    C217    C    0.20103   0.37437   0.43317   1.000
    H173    H    0.16753   0.35317   0.41997   1.000
    C218    C    0.23643   0.36107   0.39967   1.000
    O55     O    0.28063   0.38697   0.41857   1.000
    O56     O    0.22013   0.32137   0.35357   1.000
    C219    C    0.22593   0.45047   0.97557   1.000
    H174    H    0.24513   0.45597   0.91387   1.000
    C220    C    0.19343   0.46747   0.98057   1.000
    C221    C    0.16533   0.45927   0.07077   1.000
    H175    H    0.14313   0.47097   0.07427   1.000
    C222    C    0.16983   0.43417   0.15597   1.000
    H176    H    0.15063   0.42857   0.21767   1.000
    C223    C    0.20233   0.41717   0.15097   1.000
    H177    H    0.20543   0.40007   0.20917   1.000
    C224    C    0.23043   0.42537   0.06077   1.000
    O57     O    0.18053   0.48147   0.89267   1.000
    H178    H    0.18433   0.46767   0.83997   1.000
    C225    C    0.26933   0.41347   0.05977   1.000
    H179    H    0.29183   0.42607   0.00287   1.000
    C226    C    0.13985   0.42249   0.51297   1.000
    H180    H    0.13053   0.39907   0.45807   1.000
    C227    C    0.10643   0.43408   0.55397   1.000
    H181    H    0.07423   0.41857   0.52707   1.000
    C228    C    0.12003   0.46827   0.63437   1.000
    H182    H    0.09713   0.47617   0.66247   1.000
    C229    C    0.16703   0.49084   0.67377   1.000
    C230    C    0.20053   0.47933   0.63277   1.000
    H183    H    0.23263   0.49477   0.65967   1.000
    C231    C    0.18693   0.44514   0.55237   1.000
    O58     O    0.18073   0.52670   0.74397   1.000
    H184    H    0.20833   0.53447   0.76757   1.000
    C232    C    0.22537   0.43411   0.51137   1.000
    H185    H    0.25813   0.45607   0.52957   1.000
    C233    C    0.21658   0.39587   0.45167   1.000
    H186    H    0.18463   0.37367   0.42847   1.000
    C234    C    0.25695   0.38904   0.42327   1.000
    O59     O    0.29987   0.42086   0.44157   1.000
    O60     O    0.24698   0.35089   0.37637   1.000
    N6      N    0.38490   0.40776   0.40947   1.000
    Zn7     Zn   0.30718   0.29077   0.68810   1.000
    O61     O    0.30260   0.30011   0.53430   1.000
    O62     O    0.30014   0.29166   0.36140   1.000
    C235    C    0.28016   0.22296   0.46570   1.000
    H187    H    0.28200   0.21170   0.53420   1.000
    C236    C    0.29530   0.27420   0.45290   1.000
    C237    C    0.24380   0.30200   0.84370   1.000
    H188    H    0.25810   0.28960   0.89100   1.000
    C238    C    0.20840   0.31060   0.88120   1.000
    H189    H    0.19870   0.30390   0.95320   1.000
    C239    C    0.18610   0.32900   0.81460   1.000
    C240    C    0.20280   0.33750   0.71130   1.000
    H190    H    0.18950   0.35030   0.66220   1.000
    C241    C    0.23780   0.32780   0.67830   1.000
    H191    H    0.24780   0.33370   0.60630   1.000
    C242    C    0.24410   0.11540   0.47850   1.000
    H192    H    0.25780   0.13370   0.54110   1.000
    C243    C    0.22840   0.06610   0.47730   1.000
    C244    C    0.20820   0.03920   0.38570   1.000
    H193    H    0.19740   0.00550   0.38480   1.000
    C245    C    0.20390   0.06170   0.29530   1.000
    H194    H    0.19010   0.04330   0.23270   1.000
    C246    C    0.21970   0.11100   0.29660   1.000
    H195    H    0.21670   0.12640   0.23480   1.000
    C247    C    0.23980   0.13790   0.38820   1.000
    O63     O    0.23200   0.04380   0.56270   1.000
    H196    H    0.25310   0.06430   0.60360   1.000
    C248    C    0.26360   0.19090   0.38510   1.000
    H197    H    0.26800   0.20460   0.31640   1.000
    C249    C    0.25660   0.05610   0.83040   1.000
    H198    H    0.28420   0.07040   0.78590   1.000
    C250    C    0.23940   0.00950   0.86970   1.000
    H199    H    0.25540   0.99210   0.85200   1.000
    C251    C    0.19880   0.98850   0.93490   1.000
    H200    H    0.18710   0.95670   0.96170   1.000
    C252    C    0.17540   0.01400   0.96070   1.000
    C253    C    0.19250   0.06050   0.92140   1.000
    H201    H    0.17640   0.07790   0.93910   1.000
    C254    C    0.23300   0.08150   0.85630   1.000
    O64     O    0.13560   0.99290   0.02150   1.000
    H202    H    0.11100   0.98410   0.98360   1.000
    C255    C    0.25012   0.13272   0.81620   1.000
    H203    H    0.22960   0.14600   0.82720   1.000
    C256    C    0.29230   0.16000   0.76650   1.000
    H204    H    0.31350   0.14770   0.75330   1.000
    C257    C    0.30560   0.20870   0.73300   1.000
    O65     O    0.27970   0.22700   0.75190   1.000
    O66     O    0.34530   0.23210   0.68690   1.000
    C258    C    0.21620   0.10880   0.30890   1.000
    H205    H    0.21070   0.12250   0.24720   1.000
    C259    C    0.19920   0.05930   0.31390   1.000
    C260    C    0.20740   0.03940   0.40410   1.000
    H206    H    0.19570   0.00550   0.40760   1.000
    C261    C    0.23250   0.06900   0.48930   1.000
    H207    H    0.23810   0.05540   0.55100   1.000
    C262    C    0.24950   0.11850   0.48430   1.000
    H208    H    0.26660   0.13870   0.54250   1.000
    C263    C    0.24130   0.13840   0.39410   1.000
    O67     O    0.18520   0.03240   0.22600   1.000
    H209    H    0.19900   0.05000   0.17330   1.000
    C264    C    0.25320   0.18920   0.39310   1.000
    H210    H    0.24060   0.19910   0.33620   1.000
    C265    C    0.24418   0.05070   0.84630   1.000
    H211    H    0.26760   0.06480   0.79140   1.000
    C266    C    0.23259   0.00569   0.88730   1.000
    H212    H    0.24810   0.98900   0.86040   1.000
    C267    C    0.19840   0.98510   0.96770   1.000
    H213    H    0.19050   0.95430   0.99580   1.000
    C268    C    0.17583   0.00953   0.00710   1.000
    C269    C    0.18734   0.05454   0.96610   1.000
    H214    H    0.17190   0.07120   0.99300   1.000
    C270    C    0.22153   0.07513   0.88570   1.000
    O68     O    0.13997   0.98737   0.07730   1.000
    H215    H    0.13220   0.00720   0.10090   1.000
    C271    C    0.23256   0.12460   0.84470   1.000
    H216    H    0.21060   0.13540   0.86290   1.000
    C272    C    0.27080   0.15405   0.78500   1.000
    H217    H    0.29300   0.14430   0.76180   1.000
    C273    C    0.27763   0.20125   0.75660   1.000
    O69     O    0.24581   0.21235   0.77490   1.000
    O70     O    0.31578   0.22943   0.70970   1.000
    N7      N    0.25891   0.31048   0.74280   1.000
    Zn8     Zn   0.97385   0.62410   0.02143   1.000
    O71     O    0.96927   0.63344   0.86763   1.000
    O72     O    0.96681   0.62499   0.69473   1.000
    C274    C    0.94683   0.55629   0.79903   1.000
    H218    H    0.94867   0.54503   0.86753   1.000
    C275    C    0.96197   0.60753   0.78623   1.000
    C276    C    0.91047   0.63533   0.17703   1.000
    H219    H    0.92477   0.62293   0.22433   1.000
    C277    C    0.87507   0.64393   0.21453   1.000
    H220    H    0.86537   0.63723   0.28653   1.000
    C278    C    0.85277   0.66233   0.14793   1.000
    C279    C    0.86947   0.67083   0.04463   1.000
    H221    H    0.85617   0.68363   0.99553   1.000
    C280    C    0.90447   0.66113   0.01163   1.000
    H222    H    0.91447   0.66703   0.93963   1.000
    C281    C    0.91077   0.44873   0.81183   1.000
    H223    H    0.92447   0.46703   0.87443   1.000
    C282    C    0.89507   0.39943   0.81063   1.000
    C283    C    0.87487   0.37253   0.71903   1.000
    H224    H    0.86407   0.33883   0.71813   1.000
    C284    C    0.87057   0.39503   0.62863   1.000
    H225    H    0.85677   0.37663   0.56603   1.000
    C285    C    0.88637   0.44433   0.62993   1.000
    H226    H    0.88337   0.45973   0.56813   1.000
    C286    C    0.90647   0.47123   0.72153   1.000
    O73     O    0.89867   0.37713   0.89603   1.000
    H227    H    0.91977   0.39763   0.93693   1.000
    C287    C    0.93027   0.52423   0.71843   1.000
    H228    H    0.93467   0.53793   0.64973   1.000
    C288    C    0.92327   0.38943   0.16373   1.000
    H229    H    0.95087   0.40373   0.11923   1.000
    C289    C    0.90607   0.34283   0.20303   1.000
    H230    H    0.92207   0.32543   0.18533   1.000
    C290    C    0.86547   0.32183   0.26823   1.000
    H231    H    0.85377   0.29003   0.29503   1.000
    C291    C    0.84207   0.34733   0.29403   1.000
    C292    C    0.85917   0.39383   0.25473   1.000
    H232    H    0.84307   0.41123   0.27243   1.000
    C293    C    0.89967   0.41483   0.18963   1.000
    O74     O    0.80227   0.32623   0.35483   1.000
    H233    H    0.77767   0.31743   0.31693   1.000
    C294    C    0.91679   0.46605   0.14953   1.000
    H234    H    0.89627   0.47933   0.16053   1.000
    C295    C    0.95897   0.49333   0.09983   1.000
    H235    H    0.98017   0.48103   0.08663   1.000
    C296    C    0.97227   0.54203   0.06633   1.000
    O75     O    0.94637   0.56033   0.08523   1.000
    O76     O    0.01197   0.56543   0.02023   1.000
    C297    C    0.88287   0.44213   0.64223   1.000
    H236    H    0.87737   0.45583   0.58053   1.000
    C298    C    0.86587   0.39263   0.64723   1.000
    C299    C    0.87407   0.37273   0.73743   1.000
    H237    H    0.86237   0.33883   0.74093   1.000
    C300    C    0.89917   0.40233   0.82263   1.000
    H238    H    0.90477   0.38873   0.88433   1.000
    C301    C    0.91617   0.45183   0.81763   1.000
    H239    H    0.93327   0.47203   0.87583   1.000
    C302    C    0.90797   0.47173   0.72743   1.000
    O77     O    0.85187   0.36573   0.55933   1.000
    H240    H    0.86567   0.38333   0.50663   1.000
    C303    C    0.91987   0.52253   0.72643   1.000
    H241    H    0.90727   0.53243   0.66953   1.000
    C304    C    0.91085   0.38403   0.17963   1.000
    H242    H    0.93427   0.39813   0.12473   1.000
    C305    C    0.89926   0.33902   0.22063   1.000
    H243    H    0.91477   0.32233   0.19373   1.000
    C306    C    0.86507   0.31843   0.30103   1.000
    H244    H    0.85717   0.28763   0.32913   1.000
    C307    C    0.84250   0.34286   0.34043   1.000
    C308    C    0.85401   0.38787   0.29943   1.000
    H245    H    0.83857   0.40453   0.32633   1.000
    C309    C    0.88820   0.40846   0.21903   1.000
    O78     O    0.80664   0.32070   0.41063   1.000
    H246    H    0.79887   0.34053   0.43423   1.000
    C310    C    0.89923   0.45793   0.17803   1.000
    H247    H    0.87727   0.46873   0.19623   1.000
    C311    C    0.93747   0.48738   0.11833   1.000
    H248    H    0.95967   0.47763   0.09513   1.000
    C312    C    0.94430   0.53458   0.08993   1.000
    O79     O    0.91248   0.54568   0.10823   1.000
    O80     O    0.98245   0.56276   0.04303   1.000
    N8      N    0.92558   0.64381   0.07613   1.000
    Zn9     Zn   0.64051   0.95744   0.35477   1.000
    O81     O    0.63593   0.96678   0.20097   1.000
    O82     O    0.63347   0.95833   0.02807   1.000
    C313    C    0.61349   0.88963   0.13237   1.000
    H249    H    0.61533   0.87837   0.20087   1.000
    C314    C    0.62863   0.94087   0.11957   1.000
    C315    C    0.57713   0.96867   0.51037   1.000
    H250    H    0.59143   0.95627   0.55767   1.000
    C316    C    0.54173   0.97727   0.54787   1.000
    H251    H    0.53203   0.97057   0.61987   1.000
    C317    C    0.51943   0.99567   0.48127   1.000
    C318    C    0.53613   0.00417   0.37797   1.000
    H252    H    0.52283   0.01697   0.32887   1.000
    C319    C    0.57113   0.99447   0.34497   1.000
    H253    H    0.58113   0.00037   0.27297   1.000
    C320    C    0.57743   0.78207   0.14517   1.000
    H254    H    0.59113   0.80037   0.20777   1.000
    C321    C    0.56173   0.73277   0.14397   1.000
    C322    C    0.54153   0.70587   0.05237   1.000
    H255    H    0.53073   0.67217   0.05147   1.000
    C323    C    0.53723   0.72837   0.96197   1.000
    H256    H    0.52343   0.70997   0.89937   1.000
    C324    C    0.55303   0.77767   0.96327   1.000
    H257    H    0.55003   0.79307   0.90147   1.000
    C325    C    0.57313   0.80457   0.05487   1.000
    O83     O    0.56533   0.71047   0.22937   1.000
    H258    H    0.58643   0.73097   0.27027   1.000
    C326    C    0.59693   0.85757   0.05177   1.000
    H259    H    0.60133   0.87127   0.98307   1.000
    C327    C    0.58993   0.72277   0.49707   1.000
    H260    H    0.61753   0.73707   0.45257   1.000
    C328    C    0.57273   0.67617   0.53637   1.000
    H261    H    0.58873   0.65877   0.51867   1.000
    C329    C    0.53213   0.65517   0.60157   1.000
    H262    H    0.52043   0.62337   0.62837   1.000
    C330    C    0.50873   0.68067   0.62737   1.000
    C331    C    0.52583   0.72717   0.58807   1.000
    H263    H    0.50973   0.74457   0.60577   1.000
    C332    C    0.56633   0.74817   0.52297   1.000
    O84     O    0.46893   0.65957   0.68817   1.000
    H264    H    0.44433   0.65077   0.65027   1.000
    C333    C    0.58345   0.79939   0.48287   1.000
    H265    H    0.56293   0.81267   0.49387   1.000
    C334    C    0.62563   0.82667   0.43317   1.000
    H266    H    0.64683   0.81437   0.41997   1.000
    C335    C    0.63893   0.87537   0.39967   1.000
    O85     O    0.61303   0.89367   0.41857   1.000
    O86     O    0.67863   0.89877   0.35357   1.000
    C336    C    0.54953   0.77547   0.97557   1.000
    H267    H    0.54403   0.78917   0.91387   1.000
    C337    C    0.53253   0.72597   0.98057   1.000
    C338    C    0.54073   0.70607   0.07077   1.000
    H268    H    0.52903   0.67217   0.07427   1.000
    C339    C    0.56583   0.73567   0.15597   1.000
    H269    H    0.57143   0.72207   0.21767   1.000
    C340    C    0.58283   0.78517   0.15097   1.000
    H270    H    0.59993   0.80537   0.20917   1.000
    C341    C    0.57463   0.80507   0.06077   1.000
    O87     O    0.51853   0.69907   0.89267   1.000
    H271    H    0.53233   0.71667   0.83997   1.000
    C342    C    0.58653   0.85587   0.05977   1.000
    H272    H    0.57393   0.86577   0.00287   1.000
    C343    C    0.57751   0.71737   0.51297   1.000
    H273    H    0.60093   0.73147   0.45807   1.000
    C344    C    0.56592   0.67236   0.55397   1.000
    H274    H    0.58143   0.65567   0.52707   1.000
    C345    C    0.53173   0.65177   0.63437   1.000
    H275    H    0.52383   0.62097   0.66247   1.000
    C346    C    0.50916   0.67620   0.67377   1.000
    C347    C    0.52067   0.72121   0.63277   1.000
    H276    H    0.50523   0.73787   0.65967   1.000
    C348    C    0.55486   0.74180   0.55237   1.000
    O88     O    0.47330   0.65404   0.74397   1.000
    H277    H    0.46553   0.67387   0.76757   1.000
    C349    C    0.56589   0.79127   0.51137   1.000
    H278    H    0.54393   0.80207   0.52957   1.000
    C350    C    0.60413   0.82072   0.45167   1.000
    H279    H    0.62633   0.81097   0.42847   1.000
    C351    C    0.61096   0.86792   0.42327   1.000
    O89     O    0.57914   0.87902   0.44157   1.000
    O90     O    0.64911   0.89610   0.37637   1.000
    N9      N    0.59224   0.97715   0.40947   1.000
    Zn10    Zn   0.29077   0.98359   0.31190   1.000
    O91     O    0.30011   0.99751   0.46570   1.000
    O92     O    0.29166   0.99152   0.63860   1.000
    C352    C    0.22296   0.94280   0.53430   1.000
    H280    H    0.21170   0.92970   0.46580   1.000
    C353    C    0.27420   0.97890   0.54710   1.000
    C354    C    0.30200   0.05820   0.15630   1.000
    H281    H    0.28960   0.03150   0.10900   1.000
    C355    C    0.31060   0.10220   0.11880   1.000
    H282    H    0.30390   0.10520   0.04680   1.000
    C356    C    0.32900   0.14290   0.18540   1.000
    C357    C    0.33750   0.13470   0.28870   1.000
    H283    H    0.35030   0.16080   0.33780   1.000
    C358    C    0.32780   0.09000   0.32170   1.000
    H284    H    0.33370   0.08590   0.39370   1.000
    C359    C    0.11540   0.87130   0.52150   1.000
    H285    H    0.13370   0.87590   0.45890   1.000
    C360    C    0.06610   0.83770   0.52270   1.000
    C361    C    0.03920   0.83100   0.61430   1.000
    H286    H    0.00550   0.80810   0.61520   1.000
    C362    C    0.06170   0.85780   0.70470   1.000
    H287    H    0.04330   0.85320   0.76730   1.000
    C363    C    0.11100   0.89130   0.70340   1.000
    H288    H    0.12640   0.90970   0.76520   1.000
    C364    C    0.13790   0.89810   0.61180   1.000
    O93     O    0.04380   0.81180   0.43730   1.000
    H289    H    0.06430   0.81120   0.39640   1.000
    C365    C    0.19090   0.92730   0.61490   1.000
    H290    H    0.20460   0.93660   0.68360   1.000
    C366    C    0.05610   0.79950   0.16960   1.000
    H291    H    0.07040   0.78620   0.21410   1.000
    C367    C    0.00950   0.77010   0.13030   1.000
    H292    H    0.99210   0.73670   0.14800   1.000
    C368    C    0.98850   0.78970   0.06510   1.000
    H293    H    0.95670   0.76960   0.03830   1.000
    C369    C    0.01400   0.83860   0.03930   1.000
    C370    C    0.06050   0.86800   0.07860   1.000
    H294    H    0.07790   0.90150   0.06090   1.000
    C371    C    0.08150   0.84850   0.14370   1.000
    O94     O    0.99290   0.85730   0.97850   1.000
    H295    H    0.98410   0.87310   0.01640   1.000
    C372    C    0.13272   0.88260   0.18380   1.000
    H296    H    0.14600   0.91640   0.17280   1.000
    C373    C    0.16000   0.86770   0.23350   1.000
    H297    H    0.14770   0.83420   0.24670   1.000
    C374    C    0.20870   0.90310   0.26700   1.000
    O95     O    0.22700   0.94730   0.24810   1.000
    O96     O    0.23210   0.88680   0.31310   1.000
    C375    C    0.10880   0.89260   0.69110   1.000
    H298    H    0.12250   0.91180   0.75280   1.000
    C376    C    0.05930   0.86010   0.68610   1.000
    C377    C    0.03940   0.83200   0.59590   1.000
    H299    H    0.00550   0.80980   0.59240   1.000
    C378    C    0.06900   0.83650   0.51070   1.000
    H300    H    0.05540   0.81730   0.44900   1.000
    C379    C    0.11850   0.86900   0.51570   1.000
    H301    H    0.13870   0.87210   0.45750   1.000
    C380    C    0.13840   0.89710   0.60590   1.000
    O97     O    0.03240   0.84720   0.77400   1.000
    H302    H    0.05000   0.85100   0.82670   1.000
    C381    C    0.18920   0.93600   0.60690   1.000
    H303    H    0.19910   0.95850   0.66380   1.000
    C382    C    0.05070   0.80652   0.15370   1.000
    H304    H    0.06480   0.79720   0.20860   1.000
    C383    C    0.00569   0.77310   0.11270   1.000
    H305    H    0.98900   0.74090   0.13960   1.000
    C384    C    0.98510   0.78670   0.03230   1.000
    H306    H    0.95430   0.76380   0.00420   1.000
    C385    C    0.00953   0.83370   0.99290   1.000
    C386    C    0.05454   0.86720   0.03390   1.000
    H307    H    0.07120   0.89930   0.00700   1.000
    C387    C    0.07513   0.85360   0.11430   1.000
    O98     O    0.98737   0.84740   0.92270   1.000
    H308    H    0.00720   0.87500   0.89910   1.000
    C388    C    0.12460   0.89204   0.15530   1.000
    H309    H    0.13540   0.92480   0.13710   1.000
    C389    C    0.15405   0.88325   0.21500   1.000
    H310    H    0.14430   0.85130   0.23820   1.000
    C390    C    0.20125   0.92362   0.24340   1.000
    O99     O    0.21235   0.96654   0.22510   1.000
    O100    O    0.22943   0.91365   0.29030   1.000
    N10     N    0.31048   0.05157   0.25720   1.000
    Zn11    Zn   0.95744   0.31692   0.64523   1.000
    O101    O    0.96678   0.33084   0.79903   1.000
    O102    O    0.95833   0.32485   0.97193   1.000
    C391    C    0.88963   0.27613   0.86763   1.000
    H311    H    0.87837   0.26303   0.79913   1.000
    C392    C    0.94087   0.31223   0.88043   1.000
    C393    C    0.96867   0.39153   0.48963   1.000
    H312    H    0.95627   0.36483   0.44233   1.000
    C394    C    0.97727   0.43553   0.45213   1.000
    H313    H    0.97057   0.43853   0.38013   1.000
    C395    C    0.99567   0.47623   0.51873   1.000
    C396    C    0.00417   0.46803   0.62203   1.000
    H314    H    0.01697   0.49413   0.67113   1.000
    C397    C    0.99447   0.42333   0.65503   1.000
    H315    H    0.00037   0.41923   0.72703   1.000
    C398    C    0.78207   0.20463   0.85483   1.000
    H316    H    0.80037   0.20923   0.79223   1.000
    C399    C    0.73277   0.17103   0.85603   1.000
    C400    C    0.70587   0.16433   0.94763   1.000
    H317    H    0.67217   0.14143   0.94853   1.000
    C401    C    0.72837   0.19113   0.03803   1.000
    H318    H    0.70997   0.18653   0.10063   1.000
    C402    C    0.77767   0.22463   0.03673   1.000
    H319    H    0.79307   0.24303   0.09853   1.000
    C403    C    0.80457   0.23143   0.94513   1.000
    O103    O    0.71047   0.14513   0.77063   1.000
    H320    H    0.73097   0.14453   0.72973   1.000
    C404    C    0.85757   0.26063   0.94823   1.000
    H321    H    0.87127   0.26993   0.01693   1.000
    C405    C    0.72277   0.13283   0.50293   1.000
    H322    H    0.73707   0.11953   0.54743   1.000
    C406    C    0.67617   0.10343   0.46363   1.000
    H323    H    0.65877   0.07003   0.48133   1.000
    C407    C    0.65517   0.12303   0.39843   1.000
    H324    H    0.62337   0.10293   0.37163   1.000
    C408    C    0.68067   0.17193   0.37263   1.000
    C409    C    0.72717   0.20133   0.41193   1.000
    H325    H    0.74457   0.23483   0.39423   1.000
    C410    C    0.74817   0.18183   0.47703   1.000
    O104    O    0.65957   0.19063   0.31183   1.000
    H326    H    0.65077   0.20643   0.34973   1.000
    C411    C    0.79939   0.21593   0.51713   1.000
    H327    H    0.81267   0.24973   0.50613   1.000
    C412    C    0.82667   0.20103   0.56683   1.000
    H328    H    0.81437   0.16753   0.58003   1.000
    C413    C    0.87537   0.23643   0.60033   1.000
    O105    O    0.89367   0.28063   0.58143   1.000
    O106    O    0.89877   0.22013   0.64643   1.000
    C414    C    0.77547   0.22593   0.02443   1.000
    H329    H    0.78917   0.24513   0.08613   1.000
    C415    C    0.72597   0.19343   0.01943   1.000
    C416    C    0.70607   0.16533   0.92923   1.000
    H330    H    0.67217   0.14313   0.92573   1.000
    C417    C    0.73567   0.16983   0.84403   1.000
    H331    H    0.72207   0.15063   0.78233   1.000
    C418    C    0.78517   0.20233   0.84903   1.000
    H332    H    0.80537   0.20543   0.79083   1.000
    C419    C    0.80507   0.23043   0.93923   1.000
    O107    O    0.69907   0.18053   0.10733   1.000
    H333    H    0.71667   0.18433   0.16003   1.000
    C420    C    0.85587   0.26933   0.94023   1.000
    H334    H    0.86577   0.29183   0.99713   1.000
    C421    C    0.71737   0.13985   0.48703   1.000
    H335    H    0.73147   0.13053   0.54193   1.000
    C422    C    0.67236   0.10643   0.44603   1.000
    H336    H    0.65567   0.07423   0.47293   1.000
    C423    C    0.65177   0.12003   0.36563   1.000
    H337    H    0.62097   0.09713   0.33753   1.000
    C424    C    0.67620   0.16703   0.32623   1.000
    C425    C    0.72121   0.20053   0.36723   1.000
    H338    H    0.73787   0.23263   0.34033   1.000
    C426    C    0.74180   0.18693   0.44763   1.000
    O108    O    0.65404   0.18073   0.25603   1.000
    H339    H    0.67387   0.20833   0.23243   1.000
    C427    C    0.79127   0.22537   0.48863   1.000
    H340    H    0.80207   0.25813   0.47043   1.000
    C428    C    0.82072   0.21658   0.54833   1.000
    H341    H    0.81097   0.18463   0.57153   1.000
    C429    C    0.86792   0.25695   0.57673   1.000
    O109    O    0.87902   0.29987   0.55843   1.000
    O110    O    0.89610   0.24698   0.62363   1.000
    N11     N    0.97715   0.38490   0.59053   1.000
    Zn12    Zn   0.62410   0.65026   0.97857   1.000
    O111    O    0.63344   0.66418   0.13237   1.000
    O112    O    0.62499   0.65819   0.30527   1.000
    C430    C    0.55629   0.60947   0.20097   1.000
    H342    H    0.54503   0.59637   0.13247   1.000
    C431    C    0.60753   0.64557   0.21377   1.000
    C432    C    0.63533   0.72487   0.82297   1.000
    H343    H    0.62293   0.69817   0.77567   1.000
    C433    C    0.64393   0.76887   0.78547   1.000
    H344    H    0.63723   0.77187   0.71347   1.000
    C434    C    0.66233   0.80957   0.85207   1.000
    C435    C    0.67083   0.80137   0.95537   1.000
    H345    H    0.68363   0.82747   0.00447   1.000
    C436    C    0.66113   0.75667   0.98837   1.000
    H346    H    0.66703   0.75257   0.06037   1.000
    C437    C    0.44873   0.53797   0.18817   1.000
    H347    H    0.46703   0.54257   0.12557   1.000
    C438    C    0.39943   0.50437   0.18937   1.000
    C439    C    0.37253   0.49767   0.28097   1.000
    H348    H    0.33883   0.47477   0.28187   1.000
    C440    C    0.39503   0.52447   0.37137   1.000
    H349    H    0.37663   0.51987   0.43397   1.000
    C441    C    0.44433   0.55797   0.37007   1.000
    H350    H    0.45973   0.57637   0.43187   1.000
    C442    C    0.47123   0.56477   0.27847   1.000
    O113    O    0.37713   0.47847   0.10397   1.000
    H351    H    0.39763   0.47787   0.06307   1.000
    C443    C    0.52423   0.59397   0.28157   1.000
    H352    H    0.53793   0.60327   0.35027   1.000
    C444    C    0.38943   0.46617   0.83627   1.000
    H353    H    0.40373   0.45287   0.88077   1.000
    C445    C    0.34283   0.43677   0.79697   1.000
    H354    H    0.32543   0.40337   0.81467   1.000
    C446    C    0.32183   0.45637   0.73177   1.000
    H355    H    0.29003   0.43627   0.70497   1.000
    C447    C    0.34733   0.50527   0.70597   1.000
    C448    C    0.39383   0.53467   0.74527   1.000
    H356    H    0.41123   0.56817   0.72757   1.000
    C449    C    0.41483   0.51517   0.81037   1.000
    O114    O    0.32623   0.52397   0.64517   1.000
    H357    H    0.31743   0.53977   0.68307   1.000
    C450    C    0.46605   0.54927   0.85047   1.000
    H358    H    0.47933   0.58307   0.83947   1.000
    C451    C    0.49333   0.53437   0.90017   1.000
    H359    H    0.48103   0.50087   0.91337   1.000
    C452    C    0.54203   0.56977   0.93367   1.000
    O115    O    0.56033   0.61397   0.91477   1.000
    O116    O    0.56543   0.55347   0.97977   1.000
    C453    C    0.44213   0.55927   0.35777   1.000
    H360    H    0.45583   0.57847   0.41947   1.000
    C454    C    0.39263   0.52677   0.35277   1.000
    C455    C    0.37273   0.49867   0.26257   1.000
    H361    H    0.33883   0.47647   0.25907   1.000
    C456    C    0.40233   0.50317   0.17737   1.000
    H362    H    0.38873   0.48397   0.11567   1.000
    C457    C    0.45183   0.53567   0.18237   1.000
    H363    H    0.47203   0.53877   0.12417   1.000
    C458    C    0.47173   0.56377   0.27257   1.000
    O117    O    0.36573   0.51387   0.44067   1.000
    H364    H    0.38333   0.51767   0.49337   1.000
    C459    C    0.52253   0.60267   0.27357   1.000
    H365    H    0.53243   0.62517   0.33047   1.000
    C460    C    0.38403   0.47319   0.82037   1.000
    H366    H    0.39813   0.46387   0.87527   1.000
    C461    C    0.33902   0.43977   0.77937   1.000
    H367    H    0.32233   0.40757   0.80627   1.000
    C462    C    0.31843   0.45337   0.69897   1.000
    H368    H    0.28763   0.43047   0.67087   1.000
    C463    C    0.34286   0.50037   0.65957   1.000
    C464    C    0.38787   0.53387   0.70057   1.000
    H369    H    0.40453   0.56597   0.67367   1.000
    C465    C    0.40846   0.52027   0.78097   1.000
    O118    O    0.32070   0.51407   0.58937   1.000
    H370    H    0.34053   0.54167   0.56577   1.000
    C466    C    0.45793   0.55871   0.82197   1.000
    H371    H    0.46873   0.59147   0.80377   1.000
    C467    C    0.48738   0.54992   0.88167   1.000
    H372    H    0.47763   0.51797   0.90487   1.000
    C468    C    0.53458   0.59029   0.91007   1.000
    O119    O    0.54568   0.63321   0.89177   1.000
    O120    O    0.56276   0.58032   0.95697   1.000
    N12     N    0.64381   0.71824   0.92387   1.000
    Zn13    Zn   0.01641   0.30718   0.31190   1.000
    O121    O    0.00249   0.30260   0.46570   1.000
    O122    O    0.00848   0.30014   0.63860   1.000
    C469    C    0.05720   0.28016   0.53430   1.000
    H373    H    0.07030   0.28200   0.46580   1.000
    C470    C    0.02110   0.29530   0.54710   1.000
    C471    C    0.94180   0.24380   0.15630   1.000
    H374    H    0.96850   0.25810   0.10900   1.000
    C472    C    0.89780   0.20840   0.11880   1.000
    H375    H    0.89480   0.19870   0.04680   1.000
    C473    C    0.85710   0.18610   0.18540   1.000
    C474    C    0.86530   0.20280   0.28870   1.000
    H376    H    0.83920   0.18950   0.33780   1.000
    C475    C    0.91000   0.23780   0.32170   1.000
    H377    H    0.91410   0.24780   0.39370   1.000
    C476    C    0.12870   0.24410   0.52150   1.000
    H378    H    0.12410   0.25780   0.45890   1.000
    C477    C    0.16230   0.22840   0.52270   1.000
    C478    C    0.16900   0.20820   0.61430   1.000
    H379    H    0.19190   0.19740   0.61520   1.000
    C479    C    0.14220   0.20390   0.70470   1.000
    H380    H    0.14680   0.19010   0.76730   1.000
    C480    C    0.10870   0.21970   0.70340   1.000
    H381    H    0.09030   0.21670   0.76520   1.000
    C481    C    0.10190   0.23980   0.61180   1.000
    O123    O    0.18820   0.23200   0.43730   1.000
    H382    H    0.18880   0.25310   0.39640   1.000
    C482    C    0.07270   0.26360   0.61490   1.000
    H383    H    0.06340   0.26800   0.68360   1.000
    C483    C    0.20050   0.25660   0.16960   1.000
    H384    H    0.21380   0.28420   0.21410   1.000
    C484    C    0.22990   0.23940   0.13030   1.000
    H385    H    0.26330   0.25540   0.14800   1.000
    C485    C    0.21030   0.19880   0.06510   1.000
    H386    H    0.23040   0.18710   0.03830   1.000
    C486    C    0.16140   0.17540   0.03930   1.000
    C487    C    0.13200   0.19250   0.07860   1.000
    H387    H    0.09850   0.17640   0.06090   1.000
    C488    C    0.15150   0.23300   0.14370   1.000
    O124    O    0.14270   0.13560   0.97850   1.000
    H388    H    0.12690   0.11100   0.01640   1.000
    C489    C    0.11740   0.25012   0.18380   1.000
    H389    H    0.08360   0.22960   0.17280   1.000
    C490    C    0.13230   0.29230   0.23350   1.000
    H390    H    0.16580   0.31350   0.24670   1.000
    C491    C    0.09690   0.30560   0.26700   1.000
    O125    O    0.05270   0.27970   0.24810   1.000
    O126    O    0.11320   0.34530   0.31310   1.000
    C492    C    0.10740   0.21620   0.69110   1.000
    H391    H    0.08820   0.21070   0.75280   1.000
    C493    C    0.13990   0.19920   0.68610   1.000
    C494    C    0.16800   0.20740   0.59590   1.000
    H392    H    0.19020   0.19570   0.59240   1.000
    C495    C    0.16350   0.23250   0.51070   1.000
    H393    H    0.18270   0.23810   0.44900   1.000
    C496    C    0.13100   0.24950   0.51570   1.000
    H394    H    0.12790   0.26660   0.45750   1.000
    C497    C    0.10290   0.24130   0.60590   1.000
    O127    O    0.15280   0.18520   0.77400   1.000
    H395    H    0.14900   0.19900   0.82670   1.000
    C498    C    0.06400   0.25320   0.60690   1.000
    H396    H    0.04150   0.24060   0.66380   1.000
    C499    C    0.19348   0.24418   0.15370   1.000
    H397    H    0.20280   0.26760   0.20860   1.000
    C500    C    0.22690   0.23259   0.11270   1.000
    H398    H    0.25910   0.24810   0.13960   1.000
    C501    C    0.21330   0.19840   0.03230   1.000
    H399    H    0.23620   0.19050   0.00420   1.000
    C502    C    0.16630   0.17583   0.99290   1.000
    C503    C    0.13280   0.18734   0.03390   1.000
    H400    H    0.10070   0.17190   0.00700   1.000
    C504    C    0.14640   0.22153   0.11430   1.000
    O128    O    0.15260   0.13997   0.92270   1.000
    H401    H    0.12500   0.13220   0.89910   1.000
    C505    C    0.10796   0.23256   0.15530   1.000
    H402    H    0.07520   0.21060   0.13710   1.000
    C506    C    0.11675   0.27080   0.21500   1.000
    H403    H    0.14870   0.29300   0.23820   1.000
    C507    C    0.07638   0.27763   0.24340   1.000
    O129    O    0.03346   0.24581   0.22510   1.000
    O130    O    0.08635   0.31578   0.29030   1.000
    N13     N    0.94843   0.25891   0.25720   1.000
    Zn14    Zn   0.68308   0.64051   0.64523   1.000
    O131    O    0.66916   0.63593   0.79903   1.000
    O132    O    0.67515   0.63347   0.97193   1.000
    C508    C    0.72387   0.61349   0.86763   1.000
    H404    H    0.73697   0.61533   0.79913   1.000
    C509    C    0.68777   0.62863   0.88043   1.000
    C510    C    0.60847   0.57713   0.48963   1.000
    H405    H    0.63517   0.59143   0.44233   1.000
    C511    C    0.56447   0.54173   0.45213   1.000
    H406    H    0.56147   0.53203   0.38013   1.000
    C512    C    0.52377   0.51943   0.51873   1.000
    C513    C    0.53197   0.53613   0.62203   1.000
    H407    H    0.50587   0.52283   0.67113   1.000
    C514    C    0.57667   0.57113   0.65503   1.000
    H408    H    0.58077   0.58113   0.72703   1.000
    C515    C    0.79537   0.57743   0.85483   1.000
    H409    H    0.79077   0.59113   0.79223   1.000
    C516    C    0.82897   0.56173   0.85603   1.000
    C517    C    0.83567   0.54153   0.94763   1.000
    H410    H    0.85857   0.53073   0.94853   1.000
    C518    C    0.80887   0.53723   0.03803   1.000
    H411    H    0.81347   0.52343   0.10063   1.000
    C519    C    0.77537   0.55303   0.03673   1.000
    H412    H    0.75697   0.55003   0.09853   1.000
    C520    C    0.76857   0.57313   0.94513   1.000
    O133    O    0.85487   0.56533   0.77063   1.000
    H413    H    0.85547   0.58643   0.72973   1.000
    C521    C    0.73937   0.59693   0.94823   1.000
    H414    H    0.73007   0.60133   0.01693   1.000
    C522    C    0.86717   0.58993   0.50293   1.000
    H415    H    0.88047   0.61753   0.54743   1.000
    C523    C    0.89657   0.57273   0.46363   1.000
    H416    H    0.92997   0.58873   0.48133   1.000
    C524    C    0.87697   0.53213   0.39843   1.000
    H417    H    0.89707   0.52043   0.37163   1.000
    C525    C    0.82807   0.50873   0.37263   1.000
    C526    C    0.79867   0.52583   0.41193   1.000
    H418    H    0.76517   0.50973   0.39423   1.000
    C527    C    0.81817   0.56633   0.47703   1.000
    O134    O    0.80937   0.46893   0.31183   1.000
    H419    H    0.79357   0.44433   0.34973   1.000
    C528    C    0.78407   0.58345   0.51713   1.000
    H420    H    0.75027   0.56293   0.50613   1.000
    C529    C    0.79897   0.62563   0.56683   1.000
    H421    H    0.83247   0.64683   0.58003   1.000
    C530    C    0.76357   0.63893   0.60033   1.000
    O135    O    0.71937   0.61303   0.58143   1.000
    O136    O    0.77987   0.67863   0.64643   1.000
    C531    C    0.77407   0.54953   0.02443   1.000
    H422    H    0.75487   0.54403   0.08613   1.000
    C532    C    0.80657   0.53253   0.01943   1.000
    C533    C    0.83467   0.54073   0.92923   1.000
    H423    H    0.85687   0.52903   0.92573   1.000
    C534    C    0.83017   0.56583   0.84403   1.000
    H424    H    0.84937   0.57143   0.78233   1.000
    C535    C    0.79767   0.58283   0.84903   1.000
    H425    H    0.79457   0.59993   0.79083   1.000
    C536    C    0.76957   0.57463   0.93923   1.000
    O137    O    0.81947   0.51853   0.10733   1.000
    H426    H    0.81567   0.53233   0.16003   1.000
    C537    C    0.73067   0.58653   0.94023   1.000
    H427    H    0.70817   0.57393   0.99713   1.000
    C538    C    0.86015   0.57751   0.48703   1.000
    H428    H    0.86947   0.60093   0.54193   1.000
    C539    C    0.89357   0.56592   0.44603   1.000
    H429    H    0.92577   0.58143   0.47293   1.000
    C540    C    0.87997   0.53173   0.36563   1.000
    H430    H    0.90287   0.52383   0.33753   1.000
    C541    C    0.83297   0.50916   0.32623   1.000
    C542    C    0.79947   0.52067   0.36723   1.000
    H431    H    0.76737   0.50523   0.34033   1.000
    C543    C    0.81307   0.55486   0.44763   1.000
    O138    O    0.81927   0.47330   0.25603   1.000
    H432    H    0.79167   0.46553   0.23243   1.000
    C544    C    0.77463   0.56589   0.48863   1.000
    H433    H    0.74187   0.54393   0.47043   1.000
    C545    C    0.78342   0.60413   0.54833   1.000
    H434    H    0.81537   0.62633   0.57153   1.000
    C546    C    0.74305   0.61096   0.57673   1.000
    O139    O    0.70013   0.57914   0.55843   1.000
    O140    O    0.75302   0.64911   0.62363   1.000
    N14     N    0.61510   0.59224   0.59053   1.000
    Zn15    Zn   0.34974   0.97385   0.97857   1.000
    O141    O    0.33582   0.96927   0.13237   1.000
    O142    O    0.34181   0.96681   0.30527   1.000
    C547    C    0.39053   0.94683   0.20097   1.000
    H435    H    0.40363   0.94867   0.13247   1.000
    C548    C    0.35443   0.96197   0.21377   1.000
    C549    C    0.27513   0.91047   0.82297   1.000
    H436    H    0.30183   0.92477   0.77567   1.000
    C550    C    0.23113   0.87507   0.78547   1.000
    H437    H    0.22813   0.86537   0.71347   1.000
    C551    C    0.19043   0.85277   0.85207   1.000
    C552    C    0.19863   0.86947   0.95537   1.000
    H438    H    0.17253   0.85617   0.00447   1.000
    C553    C    0.24333   0.90447   0.98837   1.000
    H439    H    0.24743   0.91447   0.06037   1.000
    C554    C    0.46203   0.91077   0.18817   1.000
    H440    H    0.45743   0.92447   0.12557   1.000
    C555    C    0.49563   0.89507   0.18937   1.000
    C556    C    0.50233   0.87487   0.28097   1.000
    H441    H    0.52523   0.86407   0.28187   1.000
    C557    C    0.47553   0.87057   0.37137   1.000
    H442    H    0.48013   0.85677   0.43397   1.000
    C558    C    0.44203   0.88637   0.37007   1.000
    H443    H    0.42363   0.88337   0.43187   1.000
    C559    C    0.43523   0.90647   0.27847   1.000
    O143    O    0.52153   0.89867   0.10397   1.000
    H444    H    0.52213   0.91977   0.06307   1.000
    C560    C    0.40603   0.93027   0.28157   1.000
    H445    H    0.39673   0.93467   0.35027   1.000
    C561    C    0.53383   0.92327   0.83627   1.000
    H446    H    0.54713   0.95087   0.88077   1.000
    C562    C    0.56323   0.90607   0.79697   1.000
    H447    H    0.59663   0.92207   0.81467   1.000
    C563    C    0.54363   0.86547   0.73177   1.000
    H448    H    0.56373   0.85377   0.70497   1.000
    C564    C    0.49473   0.84207   0.70597   1.000
    C565    C    0.46533   0.85917   0.74527   1.000
    H449    H    0.43183   0.84307   0.72757   1.000
    C566    C    0.48483   0.89967   0.81037   1.000
    O144    O    0.47603   0.80227   0.64517   1.000
    H450    H    0.46023   0.77767   0.68307   1.000
    C567    C    0.45073   0.91679   0.85047   1.000
    H451    H    0.41693   0.89627   0.83947   1.000
    C568    C    0.46563   0.95897   0.90017   1.000
    H452    H    0.49913   0.98017   0.91337   1.000
    C569    C    0.43023   0.97227   0.93367   1.000
    O145    O    0.38603   0.94637   0.91477   1.000
    O146    O    0.44653   0.01197   0.97977   1.000
    C570    C    0.44073   0.88287   0.35777   1.000
    H453    H    0.42153   0.87737   0.41947   1.000
    C571    C    0.47323   0.86587   0.35277   1.000
    C572    C    0.50133   0.87407   0.26257   1.000
    H454    H    0.52353   0.86237   0.25907   1.000
    C573    C    0.49683   0.89917   0.17737   1.000
    H455    H    0.51603   0.90477   0.11567   1.000
    C574    C    0.46433   0.91617   0.18237   1.000
    H456    H    0.46123   0.93327   0.12417   1.000
    C575    C    0.43623   0.90797   0.27257   1.000
    O147    O    0.48613   0.85187   0.44067   1.000
    H457    H    0.48233   0.86567   0.49337   1.000
    C576    C    0.39733   0.91987   0.27357   1.000
    H458    H    0.37483   0.90727   0.33047   1.000
    C577    C    0.52681   0.91085   0.82037   1.000
    H459    H    0.53613   0.93427   0.87527   1.000
    C578    C    0.56023   0.89926   0.77937   1.000
    H460    H    0.59243   0.91477   0.80627   1.000
    C579    C    0.54663   0.86507   0.69897   1.000
    H461    H    0.56953   0.85717   0.67087   1.000
    C580    C    0.49963   0.84250   0.65957   1.000
    C581    C    0.46613   0.85401   0.70057   1.000
    H462    H    0.43403   0.83857   0.67367   1.000
    C582    C    0.47973   0.88820   0.78097   1.000
    O148    O    0.48593   0.80664   0.58937   1.000
    H463    H    0.45833   0.79887   0.56577   1.000
    C583    C    0.44129   0.89923   0.82197   1.000
    H464    H    0.40853   0.87727   0.80377   1.000
    C584    C    0.45008   0.93747   0.88167   1.000
    H465    H    0.48203   0.95967   0.90487   1.000
    C585    C    0.40971   0.94430   0.91007   1.000
    O149    O    0.36679   0.91248   0.89177   1.000
    O150    O    0.41968   0.98245   0.95697   1.000
    N15     N    0.28176   0.92558   0.92387   1.000
    Zn16    Zn   0.69282   0.70923   0.31190   1.000
    O151    O    0.69740   0.69989   0.46570   1.000
    O152    O    0.69986   0.70834   0.63860   1.000
    C586    C    0.71984   0.77704   0.53430   1.000
    H466    H    0.71800   0.78830   0.46580   1.000
    C587    C    0.70470   0.72580   0.54710   1.000
    C588    C    0.75620   0.69800   0.15630   1.000
    H467    H    0.74190   0.71040   0.10900   1.000
    C589    C    0.79160   0.68940   0.11880   1.000
    H468    H    0.80130   0.69610   0.04680   1.000
    C590    C    0.81390   0.67100   0.18540   1.000
    C591    C    0.79720   0.66250   0.28870   1.000
    H469    H    0.81050   0.64970   0.33780   1.000
    C592    C    0.76220   0.67220   0.32170   1.000
    H470    H    0.75220   0.66630   0.39370   1.000
    C593    C    0.75590   0.88460   0.52150   1.000
    H471    H    0.74220   0.86630   0.45890   1.000
    C594    C    0.77160   0.93390   0.52270   1.000
    C595    C    0.79180   0.96080   0.61430   1.000
    H472    H    0.80260   0.99450   0.61520   1.000
    C596    C    0.79610   0.93830   0.70470   1.000
    H473    H    0.80990   0.95670   0.76730   1.000
    C597    C    0.78030   0.88900   0.70340   1.000
    H474    H    0.78330   0.87360   0.76520   1.000
    C598    C    0.76020   0.86210   0.61180   1.000
    O153    O    0.76800   0.95620   0.43730   1.000
    H475    H    0.74690   0.93570   0.39640   1.000
    C599    C    0.73640   0.80910   0.61490   1.000
    H476    H    0.73200   0.79540   0.68360   1.000
    C600    C    0.74340   0.94390   0.16960   1.000
    H477    H    0.71580   0.92960   0.21410   1.000
    C601    C    0.76060   0.99050   0.13030   1.000
    H478    H    0.74460   0.00790   0.14800   1.000
    C602    C    0.80120   0.01150   0.06510   1.000
    H479    H    0.81290   0.04330   0.03830   1.000
    C603    C    0.82460   0.98600   0.03930   1.000
    C604    C    0.80750   0.93950   0.07860   1.000
    H480    H    0.82360   0.92210   0.06090   1.000
    C605    C    0.76700   0.91850   0.14370   1.000
    O154    O    0.86440   0.00710   0.97850   1.000
    H481    H    0.88900   0.01590   0.01640   1.000
    C606    C    0.74988   0.86728   0.18380   1.000
    H482    H    0.77040   0.85400   0.17280   1.000
    C607    C    0.70770   0.84000   0.23350   1.000
    H483    H    0.68650   0.85230   0.24670   1.000
    C608    C    0.69440   0.79130   0.26700   1.000
    O155    O    0.72030   0.77300   0.24810   1.000
    O156    O    0.65470   0.76790   0.31310   1.000
    C609    C    0.78380   0.89120   0.69110   1.000
    H484    H    0.78930   0.87750   0.75280   1.000
    C610    C    0.80080   0.94070   0.68610   1.000
    C611    C    0.79260   0.96060   0.59590   1.000
    H485    H    0.80430   0.99450   0.59240   1.000
    C612    C    0.76750   0.93100   0.51070   1.000
    H486    H    0.76190   0.94460   0.44900   1.000
    C613    C    0.75050   0.88150   0.51570   1.000
    H487    H    0.73340   0.86130   0.45750   1.000
    C614    C    0.75870   0.86160   0.60590   1.000
    O157    O    0.81480   0.96760   0.77400   1.000
    H488    H    0.80100   0.95000   0.82670   1.000
    C615    C    0.74680   0.81080   0.60690   1.000
    H489    H    0.75940   0.80090   0.66380   1.000
    C616    C    0.75582   0.94930   0.15370   1.000
    H490    H    0.73240   0.93520   0.20860   1.000
    C617    C    0.76741   0.99431   0.11270   1.000
    H491    H    0.75190   0.01100   0.13960   1.000
    C618    C    0.80160   0.01490   0.03230   1.000
    H492    H    0.80950   0.04570   0.00420   1.000
    C619    C    0.82417   0.99047   0.99290   1.000
    C620    C    0.81266   0.94546   0.03390   1.000
    H493    H    0.82810   0.92880   0.00700   1.000
    C621    C    0.77847   0.92487   0.11430   1.000
    O158    O    0.86003   0.01263   0.92270   1.000
    H494    H    0.86780   0.99280   0.89910   1.000
    C622    C    0.76744   0.87540   0.15530   1.000
    H495    H    0.78940   0.86460   0.13710   1.000
    C623    C    0.72920   0.84595   0.21500   1.000
    H496    H    0.70700   0.85570   0.23820   1.000
    C624    C    0.72237   0.79875   0.24340   1.000
    O159    O    0.75419   0.78765   0.22510   1.000
    O160    O    0.68422   0.77057   0.29030   1.000
    N16     N    0.74109   0.68952   0.25720   1.000
    Zn17    Zn   0.35949   0.04256   0.64523   1.000
    O161    O    0.36407   0.03322   0.79903   1.000
    O162    O    0.36653   0.04167   0.97193   1.000
    C625    C    0.38651   0.11037   0.86763   1.000
    H497    H    0.38467   0.12163   0.79913   1.000
    C626    C    0.37137   0.05913   0.88043   1.000
    C627    C    0.42287   0.03133   0.48963   1.000
    H498    H    0.40857   0.04373   0.44233   1.000
    C628    C    0.45827   0.02273   0.45213   1.000
    H499    H    0.46797   0.02943   0.38013   1.000
    C629    C    0.48057   0.00433   0.51873   1.000
    C630    C    0.46387   0.99583   0.62203   1.000
    H500    H    0.47717   0.98303   0.67113   1.000
    C631    C    0.42887   0.00553   0.65503   1.000
    H501    H    0.41887   0.99963   0.72703   1.000
    C632    C    0.42257   0.21793   0.85483   1.000
    H502    H    0.40887   0.19963   0.79223   1.000
    C633    C    0.43827   0.26723   0.85603   1.000
    C634    C    0.45847   0.29413   0.94763   1.000
    H503    H    0.46927   0.32783   0.94853   1.000
    C635    C    0.46277   0.27163   0.03803   1.000
    H504    H    0.47657   0.29003   0.10063   1.000
    C636    C    0.44697   0.22233   0.03673   1.000
    H505    H    0.44997   0.20693   0.09853   1.000
    C637    C    0.42687   0.19543   0.94513   1.000
    O163    O    0.43467   0.28953   0.77063   1.000
    H506    H    0.41357   0.26903   0.72973   1.000
    C638    C    0.40307   0.14243   0.94823   1.000
    H507    H    0.39867   0.12873   0.01693   1.000
    C639    C    0.41007   0.27723   0.50293   1.000
    H508    H    0.38247   0.26293   0.54743   1.000
    C640    C    0.42727   0.32383   0.46363   1.000
    H509    H    0.41127   0.34123   0.48133   1.000
    C641    C    0.46787   0.34483   0.39843   1.000
    H510    H    0.47957   0.37663   0.37163   1.000
    C642    C    0.49127   0.31933   0.37263   1.000
    C643    C    0.47417   0.27283   0.41193   1.000
    H511    H    0.49027   0.25543   0.39423   1.000
    C644    C    0.43367   0.25183   0.47703   1.000
    O164    O    0.53107   0.34043   0.31183   1.000
    H512    H    0.55567   0.34923   0.34973   1.000
    C645    C    0.41655   0.20061   0.51713   1.000
    H513    H    0.43707   0.18733   0.50613   1.000
    C646    C    0.37437   0.17333   0.56683   1.000
    H514    H    0.35317   0.18563   0.58003   1.000
    C647    C    0.36107   0.12463   0.60033   1.000
    O165    O    0.38697   0.10633   0.58143   1.000
    O166    O    0.32137   0.10123   0.64643   1.000
    C648    C    0.45047   0.22453   0.02443   1.000
    H515    H    0.45597   0.21083   0.08613   1.000
    C649    C    0.46747   0.27403   0.01943   1.000
    C650    C    0.45927   0.29393   0.92923   1.000
    H516    H    0.47097   0.32783   0.92573   1.000
    C651    C    0.43417   0.26433   0.84403   1.000
    H517    H    0.42857   0.27793   0.78233   1.000
    C652    C    0.41717   0.21483   0.84903   1.000
    H518    H    0.40007   0.19463   0.79083   1.000
    C653    C    0.42537   0.19493   0.93923   1.000
    O167    O    0.48147   0.30093   0.10733   1.000
    H519    H    0.46767   0.28333   0.16003   1.000
    C654    C    0.41347   0.14413   0.94023   1.000
    H520    H    0.42607   0.13423   0.99713   1.000
    C655    C    0.42249   0.28263   0.48703   1.000
    H521    H    0.39907   0.26853   0.54193   1.000
    C656    C    0.43408   0.32764   0.44603   1.000
    H522    H    0.41857   0.34433   0.47293   1.000
    C657    C    0.46827   0.34823   0.36563   1.000
    H523    H    0.47617   0.37903   0.33753   1.000
    C658    C    0.49084   0.32380   0.32623   1.000
    C659    C    0.47933   0.27879   0.36723   1.000
    H524    H    0.49477   0.26213   0.34033   1.000
    C660    C    0.44514   0.25820   0.44763   1.000
    O168    O    0.52670   0.34596   0.25603   1.000
    H525    H    0.53447   0.32613   0.23243   1.000
    C661    C    0.43411   0.20873   0.48863   1.000
    H526    H    0.45607   0.19793   0.47043   1.000
    C662    C    0.39587   0.17928   0.54833   1.000
    H527    H    0.37367   0.18903   0.57153   1.000
    C663    C    0.38904   0.13208   0.57673   1.000
    O169    O    0.42086   0.12098   0.55843   1.000
    O170    O    0.35089   0.10390   0.62363   1.000
    N17     N    0.40776   0.02285   0.59053   1.000
    Zn18    Zn   0.02615   0.37590   0.97857   1.000
    O171    O    0.03073   0.36656   0.13237   1.000
    O172    O    0.03319   0.37501   0.30527   1.000
    C664    C    0.05317   0.44371   0.20097   1.000
    H528    H    0.05133   0.45497   0.13247   1.000
    C665    C    0.03803   0.39247   0.21377   1.000
    C666    C    0.08953   0.36467   0.82297   1.000
    H529    H    0.07523   0.37707   0.77567   1.000
    C667    C    0.12493   0.35607   0.78547   1.000
    H530    H    0.13463   0.36277   0.71347   1.000
    C668    C    0.14723   0.33767   0.85207   1.000
    C669    C    0.13053   0.32917   0.95537   1.000
    H531    H    0.14383   0.31637   0.00447   1.000
    C670    C    0.09553   0.33887   0.98837   1.000
    H532    H    0.08553   0.33297   0.06037   1.000
    C671    C    0.08923   0.55127   0.18817   1.000
    H533    H    0.07553   0.53297   0.12557   1.000
    C672    C    0.10493   0.60057   0.18937   1.000
    C673    C    0.12513   0.62747   0.28097   1.000
    H534    H    0.13593   0.66117   0.28187   1.000
    C674    C    0.12943   0.60497   0.37137   1.000
    H535    H    0.14323   0.62337   0.43397   1.000
    C675    C    0.11363   0.55567   0.37007   1.000
    H536    H    0.11663   0.54027   0.43187   1.000
    C676    C    0.09353   0.52877   0.27847   1.000
    O173    O    0.10133   0.62287   0.10397   1.000
    H537    H    0.08023   0.60237   0.06307   1.000
    C677    C    0.06973   0.47577   0.28157   1.000
    H538    H    0.06533   0.46207   0.35027   1.000
    C678    C    0.07673   0.61057   0.83627   1.000
    H539    H    0.04913   0.59627   0.88077   1.000
    C679    C    0.09393   0.65717   0.79697   1.000
    H540    H    0.07793   0.67457   0.81467   1.000
    C680    C    0.13453   0.67817   0.73177   1.000
    H541    H    0.14623   0.70997   0.70497   1.000
    C681    C    0.15793   0.65267   0.70597   1.000
    C682    C    0.14083   0.60617   0.74527   1.000
    H542    H    0.15693   0.58877   0.72757   1.000
    C683    C    0.10033   0.58517   0.81037   1.000
    O174    O    0.19773   0.67377   0.64517   1.000
    H543    H    0.22233   0.68257   0.68307   1.000
    C684    C    0.08321   0.53395   0.85047   1.000
    H544    H    0.10373   0.52067   0.83947   1.000
    C685    C    0.04103   0.50667   0.90017   1.000
    H545    H    0.01983   0.51897   0.91337   1.000
    C686    C    0.02773   0.45797   0.93367   1.000
    O175    O    0.05363   0.43967   0.91477   1.000
    O176    O    0.98803   0.43457   0.97977   1.000
    C687    C    0.11713   0.55787   0.35777   1.000
    H546    H    0.12263   0.54417   0.41947   1.000
    C688    C    0.13413   0.60737   0.35277   1.000
    C689    C    0.12593   0.62727   0.26257   1.000
    H547    H    0.13763   0.66117   0.25907   1.000
    C690    C    0.10083   0.59767   0.17737   1.000
    H548    H    0.09523   0.61127   0.11567   1.000
    C691    C    0.08383   0.54817   0.18237   1.000
    H549    H    0.06673   0.52797   0.12417   1.000
    C692    C    0.09203   0.52827   0.27257   1.000
    O177    O    0.14813   0.63427   0.44067   1.000
    H550    H    0.13433   0.61667   0.49337   1.000
    C693    C    0.08013   0.47747   0.27357   1.000
    H551    H    0.09273   0.46757   0.33047   1.000
    C694    C    0.08915   0.61597   0.82037   1.000
    H552    H    0.06573   0.60187   0.87527   1.000
    C695    C    0.10074   0.66098   0.77937   1.000
    H553    H    0.08523   0.67767   0.80627   1.000
    C696    C    0.13493   0.68157   0.69897   1.000
    H554    H    0.14283   0.71237   0.67087   1.000
    C697    C    0.15750   0.65714   0.65957   1.000
    C698    C    0.14599   0.61213   0.70057   1.000
    H555    H    0.16143   0.59547   0.67367   1.000
    C699    C    0.11180   0.59154   0.78097   1.000
    O178    O    0.19336   0.67930   0.58937   1.000
    H556    H    0.20113   0.65947   0.56577   1.000
    C700    C    0.10077   0.54207   0.82197   1.000
    H557    H    0.12273   0.53127   0.80377   1.000
    C701    C    0.06253   0.51262   0.88167   1.000
    H558    H    0.04033   0.52237   0.90487   1.000
    C702    C    0.05570   0.46542   0.91007   1.000
    O179    O    0.08752   0.45432   0.89177   1.000
    O180    O    0.01755   0.43724   0.95697   1.000
    N18     N    0.07442   0.35619   0.92387   1.000
